------- AERODYN v15 for OpenFAST INPUT FILE ---------------------------------------------------------
Floating MHK turbine hydrodynamic input properties, based on the RM1 tidal current rotor
======  General Options  ============================================================================
False         Echo               - Echo the input to "<rootname>.AD.ech"?  (flag)
"default"     DTAero             - Time interval for aerodynamic calculations {or "default"} (s)
          1   Wake_Mod            - Type of wake/induction model (switch) {0=none, 1=BEMT, 2=DBEMT, 3=OLAF} [WakeMod cannot be 2 or 3 when linearizing]
          1   TwrPotent          - Type tower influence on wind based on potential flow around the tower (switch) {0=none, 1=baseline potential flow, 2=potential flow with Bak correction}
          0   TwrShadow          - Calculate tower influence on wind based on downstream tower shadow (switch) {0=none, 1=Powles model, 2=Eames model}
True          TwrAero            - Calculate tower aerodynamic loads? (flag)
True          CavitCheck         - Perform cavitation check? (flag) [AFAeroMod must be 1 when CavitCheck=true]
True          Buoyancy           - Include buoyancy effects? (flag)
False                  NacelleDrag - Include Nacelle Drag effects? (flag)
False         CompAA             - Flag to compute AeroAcoustics calculation [used only when WakeMod = 1 or 2]
"unused"      AA_InputFile       - AeroAcoustics input file [used only when CompAA=true]
======  Environmental Conditions  ===================================================================
"default"     AirDens            - Air density (kg/m^3)
"default"     KinVisc            - Kinematic viscosity of working fluid (m^2/s)
"default"     SpdSound           - Speed of sound in working fluid (m/s)
"default"     Patm               - Atmospheric pressure (Pa) [used only when CavitCheck=True]
"default"     Pvap               - Vapour pressure of working fluid (Pa) [used only when CavitCheck=True]
======  Blade-Element/Momentum Theory Options  ====================================================== [unused when Wake_Mod=0 or 3, except for BEM_Mod]
1                      BEM_Mod     - BEM model {1=legacy NoSweepPitchTwist, 2=polar} (switch) [used for all Wake_Mod to determine output coordinate system]
--- Skew correction
1                      Skew_Mod    - Skew model {0=No skew model, -1=Remove non-normal component for linearization, 1=skew model active}
False                  SkewMomCorr - Turn the skew momentum correction on or off [used only when Skew_Mod=1]
default                SkewRedistr_Mod - Type of skewed-wake correction model (switch) {0=no redistribution, 1=Glauert/Pitt/Peters, default=1} [used only when Skew_Mod=1]
"default"              SkewRedistrFactor - Constant used in Pitt/Peters skewed wake model {or "default" is 15/32*pi} (-) [used only when Skew_Mod=1 and SkewRedistr_Mod=1]
--- BEM algorithm 
True          TipLoss            - Use the Prandtl tip-loss model? (flag) [unused when WakeMod=0 or 3]
True          HubLoss            - Use the Prandtl hub-loss model? (flag) [unused when WakeMod=0 or 3]
True          TanInd             - Include tangential induction in BEMT calculations? (flag) [unused when WakeMod=0 or 3]
True          AIDrag             - Include the drag term in the axial-induction calculation? (flag) [unused when WakeMod=0 or 3]
True          TIDrag             - Include the drag term in the tangential-induction calculation? (flag) [unused when WakeMod=0,3 or TanInd=FALSE]
"default"     IndToler           - Convergence tolerance for BEMT nonlinear solve residual equation {or "default"} (-) [unused when WakeMod=0 or 3]
       1000   MaxIter            - Maximum number of iteration steps (-) [unused when WakeMod=0]
--- Shear correction
False                  SectAvg     - Use sector averaging (flag)
1                      SectAvgWeighting - Weighting function for sector average {1=Uniform, default=1} within a sector centered on the blade (switch) [used only when SectAvg=True]
default                SectAvgNPoints - Number of points per sectors (-) {default=5} [used only when SectAvg=True]
default                SectAvgPsiBwd - Backward azimuth relative to blade where the sector starts (<=0) {default=-60} (deg) [used only when SectAvg=True]
default                SectAvgPsiFwd - Forward azimuth relative to blade where the sector ends (>=0) {default=60} (deg) [used only when SectAvg=True]
--- Dynamic wake/inflow
          2   DBEMT_Mod          - Type of dynamic BEMT (DBEMT) model {1=constant tau1, 2=time-dependent tau1} (-) [used only when WakeMod=2]
          4   tau1_const         - Time constant for DBEMT (s) [used only when WakeMod=2 and DBEMT_Mod=1]
======  OLAF -- cOnvecting LAgrangian Filaments (Free Vortex Wake) Theory Options  ================== [used only when WakeMod=3]
"unused"      OLAFInputFileName  - Input file for OLAF [used only when WakeMod=3]
======  Unsteady Airfoil Aerodynamics Options  ====================================================
True                   AoA34       - Sample the angle of attack (AoA) at the 3/4 chord or the AC point {default=True} [always used]
0                      UA_Mod      - Unsteady Aero Model Switch (switch) {0=Quasi-steady (no UA), 2=B-L Gonzalez, 3=B-L Minnema/Pierce, 4=B-L HGM 4-states, 5=B-L HGM+vortex 5 states, 6=Oye, 7=Boeing-Vertol}
True                   FLookup     - Flag to indicate whether a lookup for f' will be calculated (TRUE) or whether best-fit exponential equations will be used (FALSE); if FALSE S1-S4 must be provided in airfoil input files (flag) [used only when UA_Mod>0]
3               IntegrationMethod  - Switch to indicate which integration method UA uses (1=RK4, 2=AB4, 3=ABM4, 4=BDF2)
0                      UAStartRad  - Starting radius for dynamic stall (fraction of rotor radius [0.0,1.0]) [used only when UA_Mod>0; if line is missing UAStartRad=0]
1                      UAEndRad    - Ending radius for dynamic stall (fraction of rotor radius [0.0,1.0]) [used only when UA_Mod>0; if line is missing UAEndRad=1]
======  Airfoil Information =========================================================================
          2   AFTabMod           - Interpolation method for multiple airfoil tables {1=1D interpolation on AoA (first table only); 2=2D interpolation on AoA and Re; 3=2D interpolation on AoA and UserProp} (-)
          1   InCol_Alfa         - The column in the airfoil tables that contains the angle of attack (-)
          2   InCol_Cl           - The column in the airfoil tables that contains the lift coefficient (-)
          3   InCol_Cd           - The column in the airfoil tables that contains the drag coefficient (-)
          0   InCol_Cm           - The column in the airfoil tables that contains the pitching-moment coefficient; use zero if there is no Cm column (-)
          4   InCol_Cpmin        - The column in the airfoil tables that contains the Cpmin coefficient; use zero if there is no Cpmin column (-)
          9   NumAFfiles         - Number of airfoil files used (-)
"Airfoils/NACA6_1000.dat"    AFNames    - Airfoil file names (NumAFfiles lines) (quoted strings)
"Airfoils/NACA6_0864.dat"
"Airfoils/NACA6_0629.dat"
"Airfoils/NACA6_0444.dat"
"Airfoils/NACA6_0329.dat"
"Airfoils/NACA6_0276.dat"
"Airfoils/NACA6_0259.dat"
"Airfoils/NACA6_0247.dat"
"Airfoils/NACA6_0240.dat"
======  Rotor/Blade Properties  =====================================================================
False         UseBlCm            - Include aerodynamic pitching moment in calculations?  (flag)
"MHK_RM1_AeroDyn15_Blade.dat"    ADBlFile(1)    - Name of file containing distributed aerodynamic properties for Blade #1 (-)
"MHK_RM1_AeroDyn15_Blade.dat"    ADBlFile(2)    - Name of file containing distributed aerodynamic properties for Blade #2 (-) [unused if NumBl < 2]
"unused"                         ADBlFile(3)    - Name of file containing distributed aerodynamic properties for Blade #3 (-) [unused if NumBl < 3]
======  Hub Properties ============================================================================== [used only when Buoyancy=True]
7.2     VolHub                   - Hub volume (m^3)
0.2222  HubCenBx                 - Hub center of buoyancy x direction offset (m)
======  Nacelle Properties ========================================================================== [used only when Buoyancy=True or NacelleDrag=True]
38.6    VolNac                   - Nacelle volume (m^3)
0.43,0,0 NacCenB                 - Position of nacelle center of buoyancy from yaw bearing in nacelle coordinates (m)
, 0, 0      NacArea        - Projected area of the nacelle in X, Y, Z in the nacelle coordinate system (m^2)
0, 0, 0   NacCd          - Drag coefficient for the nacelle areas defined above (-)
0, 0, 0         NacDragAC          - Position of aerodynamic center of nacelle drag in nacelle coordinates (m)
======  Tail Fin Aerodynamics =======================================================================
False         TFinAero           - Calculate tail fin aerodynamics model (flag)
"unused"      TFinFile           - Input file for tail fin aerodynamics [used only when TFinAero=True]
======  Tower Influence and Aerodynamics ============================================================ [used only when TwrPotent/=0, TwrShadow/=0, TwrAero=True, or Buoyancy=True]
           4  NumTwrNds          - Number of tower nodes used in the analysis  (-) [used only when TwrPotent/=0, TwrShadow/=0, TwrAero=True, or Buoyancy=True]
TwrElev     TwrDiam     TwrCd     TwrTI  TwrCb !TwrTI used only with TwrShadow=2, TwrCb used only with Buoyancy=True
(m)         (m)         (-)       (-)    (-)
-9	     0.3253      0.2       0.0    1.0
-14	     0.3253      0.2       0.0    1.0
-19	     0.3253      0.2       0.0    1.0
-24	     0.3253      0.2       0.0    1.0
======  Outputs  ====================================================================================
True                    SumPrint - Generate a summary file listing input options and interpolated properties to "<rootname>.AD.sum"?  (flag)
                      9 NBlOuts  - Number of blade node outputs [0 - 9] (-)
1,5,9,13,17,21,25,27,30 BlOutNd  - Blade nodes whose values will be output  (-)
                      4 NTwOuts  - Number of tower node outputs [0 - 9]  (-)
                1,2,3,4 TwOutNd  - Tower nodes whose values will be output  (-)
                        OutList  - The next line(s) contains a list of output parameters. See OutListParameters.xlsx for a listing of available output channels.
"TwN1Fbx"                        - x-component of buoyant force per unit length at Tw node 1
"TwN3Fby"                        - y-component of buoyant force per unit length at Tw node 3
"TwN4Fbz"                        - z-component of buoyant force per unit length at Tw node 4
"TwN1Mbx"                        - x-component of buoyant moment per unit length at Tw node 6
"TwN2Mby"                        - y-component of buoyant moment per unit length at Tw node 5
"TwN3Mbz"                        - z-component of buoyant moment per unit length at Tw node 2
"B2N4Fbn"                        - Buoyant force normal to chord per unit length at blade 2 node 4
"B1N7Fbt"                        - Buoyant force tangential to chord per unit length at blade 1 node 7
"B2N8Fbs"                        - Buoyant spanwise force per unit length at blade 2 node 8
"B1N2Mbn"                        - Buoyant moment normal to chord per unit length at blade 1 node 2
"B2N3Mbt"                        - Buoyant moment tangential to chord per unit length at blade 2 node 3
"B1N6Mbs"                        - Buoyant spanwise moment per unit length at blade 1 node 6
"B1FldFz"                        - Total blade aerodynamic/hydrodynamic load for blade 1 (force in z-direction)
"B2FldMx"                        - Total blade aerodynamic/hydrodynamic load for blade 2 (moment in x-direction)
"HbFbx"                          - x-component of buoyant force at hub node
"HbFby"                          - y-component of buoyant force at hub node
"HbFbz"                          - z-component of buoyant force at hub node
"HbMbx"                          - x-component of buoyant moment at hub node
"HbMby"                          - y-component of buoyant moment at hub node
"HbMbz"                          - z-component of buoyant moment at hub node
"NcFbx"                          - x-component of buoyant force at nacelle node
"NcFby"                          - y-component of buoyant force at nacelle node
"NcFbz"                          - z-component of buoyant force at nacelle node
"NcMbx"                          - x-component of buoyant moment at nacelle node
"NcMby"                          - y-component of buoyant moment at nacelle node
"NcMbz"                          - z-component of buoyant moment at nacelle node
"RtFldFxh"                       - Total rotor aerodynamic/hydrodynamic and buoyant load (force in x direction)
"RtFldFyh"                       - Total rotor aerodynamic/hydrodynamic and buoyant load (force in y direction)
"RtFldFzg"                       - Total rotor aerodynamic/hydrodynamic and buoyant load (force in global z direction)
"RtFldMxh"                       - Total rotor aerodynamic/hydrodynamic and buoyant load (moment in x direction)
"RtFldMyg"                       - Total rotor aerodynamic/hydrodynamic and buoyant load (moment in global y direction)
"RtFldMzh"                       - Total rotor aerodynamic/hydrodynamic and buoyant load (moment in z direction)
"B1N3SigCr"                      - Critical cavitation number blade 1 node 3
"B2N5SigCr"                      - Critical cavitation number blade 2 node 5
"B1N2SgCav"                      - Cavitation number blade 1 node 2
"B2N6SgCav"                      - Cavitation number blade 2 node 6
END of input file (the word "END" must appear in the first 3 columns of this last OutList line)
-----------------------------------------------------------------------------------------------------
