! Controller parameter input file for the MHK_RM1_Floating wind turbine
!    - File written using ROSCO version 2.9.4 controller tuning logic on 08/14/24

!------- SIMULATION CONTROL ------------------------------------------------------------
2                   ! LoggingLevel		- {0: write no debug files, 1: write standard output .dbg-file, 2: LoggingLevel 1 + ROSCO LocalVars (.dbg2) 3: LoggingLevel 2 + complete avrSWAP-array (.dbg3)}
0                   ! DT_Out    		  - {Time step to output .dbg* files, or 0 to match sampling period of OpenFAST}
1                   ! Ext_Interface		- (0 - use standard bladed interface, 1 - Use the extened DLL interface introduced in OpenFAST 3.5.0.)
0                   ! Echo		        - (0 - no Echo, 1 - Echo input data to <RootName>.echo)

!------- CONTROLLER FLAGS -------------------------------------------------
1                   ! F_LPFType       - (1: first-order low-pass filter, 2: second-order low-pass filter), [rad/s] (currently filters generator speed and pitch control signals
0                   ! IPC_ControlMode - Turn Individual Pitch Control (IPC) for fatigue load reductions (pitch contribution) {0: off, 1: 1P reductions, 2: 1P+2P reductions}
3                   ! VS_ControlMode  - Generator torque control mode in above rated conditions (0- no torque control, 1- k*omega^2 with PI transitions, 2- WSE TSR Tracking, 3- Power-based TSR Tracking, 4- Torque-based TSR Tracking)}
1                   ! VS_ConstPower   - Do constant power torque control, where above rated torque varies, 0 for constant torque}
0                   ! VS_FBP          - Fixed blade pitch configuration mode (0- variable pitch (disabled), 1- constant power overspeed, 2- WSE-lookup reference tracking, 3- torque-lookup reference tracking)
1                   ! PC_ControlMode  - Blade pitch control mode {0: No pitch, fix to fine pitch, 1: active PI blade pitch control}
0                   ! Y_ControlMode   - Yaw control mode {0: no yaw control, 1: yaw rate control, 2: yaw-by-IPC}
1                   ! SS_Mode         - Setpoint Smoother mode {0: no setpoint smoothing, 1: introduce setpoint smoothing}
0                   ! PRC_Mode        - Power reference tracking mode{0: use standard rotor speed set points, 1: use PRC rotor speed setpoints}
0                   ! WE_Mode         - Wind speed estimator mode {0: One-second low pass filtered hub height wind speed, 1: Immersion and Invariance Estimator, 2: Extended Kalman Filter}
0                   ! PS_Mode         - Pitch saturation mode {0: no pitch saturation, 1: implement pitch saturation}
0                   ! SD_Mode         - Shutdown mode {0: no shutdown procedure, 1: pitch to max pitch at shutdown}
1                   ! Fl_Mode         - Floating specific feedback mode {0: no nacelle velocity feedback, 1: feed back translational velocity, 2: feed back rotational veloicty}
0                   ! TD_Mode         - Tower damper mode (0- no tower damper, 1- feed back translational nacelle accelleration to pitch angle
0                   ! TRA_Mode        - Tower resonance avoidance mode (0- no tower resonsnace avoidance, 1- use torque control setpoints to avoid a specific frequency
0                   ! Flp_Mode        - Flap control mode {0: no flap control, 1: steady state flap angle, 2: Proportional flap control, 2: Cyclic (1P) flap control}
0                   ! OL_Mode         - Open loop control mode {0: no open loop control, 1: open loop control vs. time, 2: rotor position control}
0                   ! PA_Mode         - Pitch actuator mode {0 - not used, 1 - first order filter, 2 - second order filter}
0                   ! PF_Mode         - Pitch fault mode {0 - not used, 1 - constant offset on one or more blades}
0                   ! AWC_Mode        - Active wake control {0 - not used, 1 - complex number method, 2 - Coleman transform method}
0                   ! Ext_Mode        - External control mode {0 - not used, 1 - call external dynamic library}
0                   ! ZMQ_Mode        - Fuse ZeroMQ interface {0: unused, 1: Yaw Control}
0                   ! CC_Mode         - Cable control mode [0- unused, 1- User defined, 2- Open loop control]
0                   ! StC_Mode        - Structural control mode [0- unused, 1- User defined, 2- Open loop control]

!------- FILTERS ----------------------------------------------------------
15.07080            ! F_LPFCornerFreq	  - Corner frequency (-3dB point) in the low-pass filters, [rad/s]
0.00000             ! F_LPFDamping		  - Damping coefficient {used only when F_FilterType = 2} [-]
2                   ! F_NumNotchFilts   - Number of notch filters placed on sensors
1.0000 2.4200         ! F_NotchFreqs      - Natural frequency of the notch filters. Array with length F_NumNotchFilts
0.0000 0.0000         ! F_NotchBetaNum    - Damping value of numerator (determines the width of notch). Array with length F_NumNotchFilts, [-]
0.2500 0.2500         ! F_NotchBetaDen    - Damping value of denominator (determines the depth of notch). Array with length F_NumNotchFilts, [-]
2                   ! F_GenSpdNotch_N   - Number of notch filters on generator speed
1 2                 ! F_GenSpdNotch_Ind - Indices of notch filters on generator speed
2                   ! F_TwrTopNotch_N   - Number of notch filters on tower top acceleration signal
1 2                 ! F_TwrTopNotch_Ind - Indices of notch filters on tower top acceleration signal
0.62830             ! F_SSCornerFreq    - Corner frequency (-3dB point) in the first order low pass filter for the setpoint smoother, [rad/s].
0.20944             ! F_WECornerFreq    - Corner frequency (-3dB point) in the first order low pass filter for the wind speed estimate [rad/s].
0.17952             ! F_YawErr          - Low pass filter corner frequency for yaw controller [rad/s].
0.661300  1.000000  ! F_FlCornerFreq    - Natural frequency and damping in the second order low pass filter of the tower-top fore-aft motion for floating feedback control [rad/s, -].
1.50000             ! F_FlHighPassFreq  - Natural frequency of first-order high-pass filter for nacelle fore-aft motion [rad/s].
0.0000 1.0000      ! F_FlpCornerFreq   - Corner frequency and damping in the second order low pass filter of the blade root bending moment for flap control
0.05000000000      ! F_VSRefSpdCornerFreq		- Corner frequency (-3dB point) in the first order low pass filter of the generator speed reference used for TSR tracking torque control [rad/s].

!------- BLADE PITCH CONTROL ----------------------------------------------
30                  ! PC_GS_n			- Amount of gain-scheduling table entries
0.030421  0.049144  0.063652  0.076112  0.087461  0.097179  0.106641  0.115177  0.123576  0.131228  0.138929  0.145961  0.152973  0.159760  0.166211  0.172713  0.178857  0.184892  0.190976  0.196697  0.202382  0.208113  0.213557  0.218943  0.224369  0.229635  0.234763  0.239926  0.245078  0.249980                ! PC_GS_angles	    - Gain-schedule table: pitch angles [rad].
-0.010218  -0.008820  -0.007664  -0.006693  -0.005865  -0.005150  -0.004528  -0.003981  -0.003496  -0.003064  -0.002676  -0.002325  -0.002007  -0.001718  -0.001453  -0.001209  -0.000985  -0.000777  -0.000585  -0.000406  -0.000239  -0.000083  0.000063  0.000200  0.000329  0.000450  0.000565  0.000673  0.000775  0.000873                ! PC_GS_KP		- Gain-schedule table: pitch controller kp gains [s].
-0.005286  -0.004785  -0.004370  -0.004022  -0.003725  -0.003469  -0.003246  -0.003050  -0.002876  -0.002721  -0.002581  -0.002456  -0.002342  -0.002238  -0.002143  -0.002056  -0.001975  -0.001901  -0.001832  -0.001768  -0.001708  -0.001652  -0.001599  -0.001550  -0.001504  -0.001461  -0.001419  -0.001381  -0.001344  -0.001309                ! PC_GS_KI		- Gain-schedule table: pitch controller ki gains [-].
0.000000  0.000000  0.000000  0.000000  0.000000  0.000000  0.000000  0.000000  0.000000  0.000000  0.000000  0.000000  0.000000  0.000000  0.000000  0.000000  0.000000  0.000000  0.000000  0.000000  0.000000  0.000000  0.000000  0.000000  0.000000  0.000000  0.000000  0.000000  0.000000  0.000000                ! PC_GS_KD			- Gain-schedule table: pitch controller kd gains
0.000000  0.000000  0.000000  0.000000  0.000000  0.000000  0.000000  0.000000  0.000000  0.000000  0.000000  0.000000  0.000000  0.000000  0.000000  0.000000  0.000000  0.000000  0.000000  0.000000  0.000000  0.000000  0.000000  0.000000  0.000000  0.000000  0.000000  0.000000  0.000000  0.000000                ! PC_GS_TF			- Gain-schedule table: pitch controller tf gains (derivative filter)
1.570000000000      ! PC_MaxPit			- Maximum physical pitch limit, [rad].
0.000710000000      ! PC_MinPit			- Minimum physical pitch limit, [rad].
0.174500000000      ! PC_MaxRat			- Maximum pitch rate (in absolute value) in pitch controller, [rad/s].
-0.17450000000      ! PC_MinRat			- Minimum pitch rate (in absolute value) in pitch controller, [rad/s].
63.81200000000      ! PC_RefSpd			- Desired (reference) HSS speed for pitch controller, [rad/s].
0.000710000000      ! PC_FinePit		- Record 5: Below-rated pitch angle set-point, [rad]
0.017450000000      ! PC_Switch			- Angle above lowest minimum pitch angle for switch, [rad]

!------- INDIVIDUAL PITCH CONTROL -----------------------------------------
1.600000  2.000000  ! IPC_Vramp		- Start and end wind speeds for cut-in ramp function. First entry: IPC inactive, second entry: IPC fully active. [m/s]
2                   ! IPC_SatMode		- IPC Saturation method (0 - no saturation (except by PC_MinPit), 1 - saturate by PS_BldPitchMin, 2 - saturate sotfly (full IPC cycle) by PC_MinPit, 3 - saturate softly by PS_BldPitchMin)
0.3                 ! IPC_IntSat		- Integrator saturation (maximum signal amplitude contribution to pitch from IPC), [rad]
0.000e+00 0.000e+00 ! IPC_KP			- Proportional gain for the individual pitch controller: first parameter for 1P reductions, second for 2P reductions, [-]
0.000e+00 0.000e+00 ! IPC_KI			- Integral gain for the individual pitch controller: first parameter for 1P reductions, second for 2P reductions, [-]
0.000000  0.000000  ! IPC_aziOffset		- Phase offset added to the azimuth angle for the individual pitch controller, [rad]. 
0.0                 ! IPC_CornerFreqAct - Corner frequency of the first-order actuators model, to induce a phase lag in the IPC signal {0: Disable}, [rad/s]

!------- VS TORQUE CONTROL ------------------------------------------------
94.40000000000      ! VS_GenEff			- Generator efficiency mechanical power -> electrical power, [should match the efficiency defined in the generator properties!], [%]
8300.335630000      ! VS_ArSatTq		- Above rated generator torque PI control saturation, [Nm]
7800.000000000      ! VS_MaxRat			- Maximum torque rate (in absolute value) in torque controller, [Nm/s].
12450.50344000      ! VS_MaxTq			- Maximum generator torque in Region 3 (HSS side), [Nm].
0.000000000000      ! VS_MinTq			- Minimum generator torque (HSS side), [Nm].
19.00787000000      ! VS_MinOMSpd		- Minimum generator speed [rad/s]
1.310360000000      ! VS_Rgn2K		- Generator torque constant in Region 2 (HSS side). Only used in VS_ControlMode = 1,3,4
500000.0000000      ! VS_RtPwr			- Wind turbine rated power [W]
8300.335630000      ! VS_RtTq			- Rated torque, [Nm].
63.81200000000      ! VS_RefSpd			- Rated generator speed [rad/s]
1                   ! VS_n				- Number of generator PI torque controller gains
-63.7037200000      ! VS_KP				- Proportional gain for generator PI torque controller [-]. (Only used in the transitional 2.5 region if VS_ControlMode =/ 2)
-84.4329000000      ! VS_KI				- Integral gain for generator PI torque controller [s]. (Only used in the transitional 2.5 region if VS_ControlMode =/ 2)
7.17                ! VS_TSRopt		    - Power-maximizing region 2 tip-speed-ratio. Only used in VS_ControlMode = 2.

!------- FIXED PITCH REGION 3 TORQUE CONTROL ------------------------------------------------
60                  ! VS_FBP_n			- Number of gain-scheduling table entries
0.500000  0.551724  0.603448  0.655172  0.706897  0.758621  0.810345  0.862069  0.913793  0.965517  1.017241  1.068966  1.120690  1.172414  1.224138  1.275862  1.327586  1.379310  1.431034  1.482759  1.534483  1.586207  1.637931  1.689655  1.741379  1.793103  1.844828  1.896552  1.948276  2.000000  2.033333  2.066667  2.100000  2.133333  2.166667  2.200000  2.233333  2.266667  2.300000  2.333333  2.366667  2.400000  2.433333  2.466667  2.500000  2.533333  2.566667  2.600000  2.633333  2.666667  2.700000  2.733333  2.766667  2.800000  2.833333  2.866667  2.900000  2.933333  2.966667  3.000000                ! VS_FBP_U	        - Operating schedule table: Wind speeds [m/s].
19.007868  20.974199  22.940530  24.906861  26.873192  28.839524  30.805855  32.772186  34.738517  36.704848  38.671179  40.637511  42.603842  44.570173  46.536504  48.502835  50.469166  52.435498  54.401829  56.368160  58.334491  60.300822  62.267153  63.812000  63.812000  63.812000  63.812000  63.812000  63.812000  63.812000  63.812000  63.812000  63.812000  63.812000  63.812000  63.812000  63.812000  63.812000  63.812000  63.812000  63.812000  63.812000  63.812000  63.812000  63.812000  63.812000  63.812000  63.812000  63.812000  63.812000  63.812000  63.812000  63.812000  63.812000  63.812000  63.812000  63.812000  63.812000  63.812000  63.812000                ! VS_FBP_Omega	    - Operating schedule table: Generator speeds [rad/s].
473.431417  576.449193  689.599865  812.883432  946.299896  1089.849256  1243.531511  1407.346663  1581.294710  1765.375654  1959.589493  2163.936229  2378.415860  2603.028388  2837.773811  3082.652130  3337.663346  3602.807457  3878.084464  4163.494367  4459.037166  4764.712862  5080.521453  5442.173156  5953.593744  6483.496857  7051.903239  7643.209401  8252.348857  8797.474880  8797.474880  8797.474880  8797.474880  8797.474880  8797.474880  8797.474880  8797.474880  8797.474880  8797.474880  8797.474880  8797.474880  8797.474880  8797.474880  8797.474880  8797.474880  8797.474880  8797.474880  8797.474880  8797.474880  8797.474880  8797.474880  8797.474880  8797.474880  8797.474880  8797.474880  8797.474880  8797.474880  8797.474880  8797.474880  8797.474880                ! VS_FBP_Tau		- Operating schedule table: Generator torques [N m].

!------- SETPOINT SMOOTHER ---------------------------------------------
1.00000             ! SS_VSGain         - Variable speed torque controller setpoint smoother gain, [-].
0.00100             ! SS_PCGain         - Collective pitch controller setpoint smoother gain, [-].

!------- POWER REFERENCE TRACKING --------------------------------------
2                   ! PRC_n			    -  Number of elements in PRC_WindSpeeds and PRC_GenSpeeds array
0.07854             ! PRC_LPF_Freq   - Frequency of the low pass filter on the wind speed estimate used to set PRC_GenSpeeds [rad/s]
3.0000 25.0000      ! PRC_WindSpeeds   - Array of wind speeds used in rotor speed vs. wind speed lookup table [m/s]
0.7917 0.7917       ! PRC_GenSpeeds   - Array of generator speeds corresponding to PRC_WindSpeeds [rad/s]

!------- WIND SPEED ESTIMATOR ---------------------------------------------
10.000              ! WE_BladeRadius	- Blade length (distance from hub center to blade tip), [m]
1                   ! WE_CP_n			- Amount of parameters in the Cp array
0.0                 ! WE_CP - Parameters that define the parameterized CP(lambda) function
0.0          		  ! WE_Gamma			- Adaption gain of the wind speed estimator algorithm [m/rad]
53.0                ! WE_GearboxRatio	- Gearbox ratio [>=1],  [-]
484024.50000       ! WE_Jtot			- Total drivetrain inertia, including blades, hub and casted generator inertia to LSS, [kg m^2]
1025.000            ! WE_RhoAir			- Air density, [kg m^-3]
"MHK_RM1_Cp_Ct_Cq.txt"      ! PerfFileName      - File containing rotor performance tables (Cp,Ct,Cq) (absolute path or relative to this file)
36      49          ! PerfTableSize     - Size of rotor performance tables, first number refers to number of blade pitch angles, second number referse to number of tip-speed ratios
60                  ! WE_FOPoles_N      - Number of first-order system poles used in EKF
0.5000 0.5517 0.6034 0.6552 0.7069 0.7586 0.8103 0.8621 0.9138 0.9655 1.0172 1.0690 1.1207 1.1724 1.2241 1.2759 1.3276 1.3793 1.4310 1.4828 1.5345 1.5862 1.6379 1.6897 1.7414 1.7931 1.8448 1.8966 1.9483 2.0000 2.0333 2.0667 2.1000 2.1333 2.1667 2.2000 2.2333 2.2667 2.3000 2.3333 2.3667 2.4000 2.4333 2.4667 2.5000 2.5333 2.5667 2.6000 2.6333 2.6667 2.7000 2.7333 2.7667 2.8000 2.8333 2.8667 2.9000 2.9333 2.9667 3.0000               ! WE_FOPoles_v      - Wind speeds corresponding to first-order system poles [m/s]
-0.14319012 -0.15800289 -0.17281566 -0.18762843 -0.20244120 -0.21725397 -0.23206675 -0.24687952 -0.26169229 -0.27650506 -0.29131783 -0.30613060 -0.32094337 -0.33575614 -0.35056891 -0.36538168 -0.38019445 -0.39500723 -0.40982000 -0.42463277 -0.43944554 -0.45425831 -0.46907108 -0.48509830 -0.50529297 -0.52102543 -0.60093736 -0.60768974 -0.61030020 -0.55504460 0.18189011 0.15313132 0.11120722 0.06086327 0.00288054 -0.05311035 -0.11616384 -0.17782722 -0.24517724 -0.30980203 -0.38092821 -0.44809639 -0.51979976 -0.59268639 -0.66438706 -0.74099235 -0.81514130 -0.89079570 -0.97084192 -1.04707341 -1.12557441 -1.20802002 -1.28718115 -1.36766352 -1.45167542 -1.53450159 -1.61641326 -1.70149382 -1.78857869 -1.87152036               ! WE_FOPoles        - First order system poles [1/s]

!------- YAW CONTROL ------------------------------------------------------
0.00000             ! Y_uSwitch		- Wind speed to switch between Y_ErrThresh. If zero, only the second value of Y_ErrThresh is used [m/s]
4.000000  8.000000  ! Y_ErrThresh    - Yaw error threshold/deadbands. Turbine begins to yaw when it passes this. If Y_uSwitch is zero, only the second value is used. [deg].
0.00870             ! Y_Rate			- Yaw rate [rad/s]
0.00000             ! Y_MErrSet		- Integrator saturation (maximum signal amplitude contribution to pitch from yaw-by-IPC), [rad]
0.00000             ! Y_IPC_IntSat		- Integrator saturation (maximum signal amplitude contribution to pitch from yaw-by-IPC), [rad]
0.00000             ! Y_IPC_KP			- Yaw-by-IPC proportional controller gain Kp
0.00000             ! Y_IPC_KI			- Yaw-by-IPC integral controller gain Ki

!------- TOWER CONTROL ------------------------------------------------------
0.00000             ! TRA_ExclSpeed	    - Rotor speed for exclusion [LSS, rad/s]
0.00000             ! TRA_ExclBand	    - Size of the rotor frequency exclusion band [LSS, rad/s]. Torque controller reference will be TRA_ExclSpeed +/- TRA_ExlBand/2
0.00000e+00         ! TRA_RateLimit	    - Rate limit of change in rotor speed reference [LSS, rad/s].  Suggested to be VS_RefSpd/400.
0.00000             ! FA_KI				- Integral gain for the fore-aft tower damper controller,  [rad*s/m]
0.00000             ! FA_HPFCornerFreq	- Corner frequency (-3dB point) in the high-pass filter on the fore-aft acceleration signal [rad/s]
0.00000             ! FA_IntSat			- Integrator saturation (maximum signal amplitude contribution to pitch from FA damper), [rad]

!------- MINIMUM PITCH SATURATION -------------------------------------------
60                  ! PS_BldPitchMin_N  - Number of values in minimum blade pitch lookup table (should equal number of values in PS_WindSpeeds and PS_BldPitchMin)
0.500 0.552 0.603 0.655 0.707 0.759 0.810 0.862 0.914 0.966 1.017 1.069 1.121 1.172 1.224 1.276 1.328 1.379 1.431 1.483 1.534 1.586 1.638 1.690 1.741 1.793 1.845 1.897 1.948 2.000 2.033 2.067 2.100 2.133 2.167 2.200 2.233 2.267 2.300 2.333 2.367 2.400 2.433 2.467 2.500 2.533 2.567 2.600 2.633 2.667 2.700 2.733 2.767 2.800 2.833 2.867 2.900 2.933 2.967 3.000               ! PS_WindSpeeds     - Wind speeds corresponding to minimum blade pitch angles [m/s]
0.001      0.001      0.001      0.001      0.001      0.001      0.001      0.001      0.001      0.001      0.001      0.001      0.001      0.001      0.001      0.001      0.001      0.001      0.001      0.001      0.001      0.001      0.001      0.001      0.001      0.001      0.001      0.001      0.001      0.001      0.001      0.001      0.001      0.001      0.001      0.001      0.001      0.001      0.001      0.001      0.001      0.001      0.001      0.001      0.001      0.001      0.001      0.001      0.001      0.001      0.001      0.001      0.001      0.001      0.001      0.001      0.001      0.001      0.001      0.001                    ! PS_BldPitchMin    - Minimum blade pitch angles [rad]

!------- SHUTDOWN -----------------------------------------------------------
0.436300000000      ! SD_MaxPit         - Maximum blade pitch angle to initiate shutdown, [rad]
0.418880000000      ! SD_CornerFreq     - Cutoff Frequency for first order low-pass filter for blade pitch angle, [rad/s]

!------- Floating -----------------------------------------------------------
1                   ! Fl_n              - Number of Fl_Kp gains in gain scheduling, optional with default of 1
-0.4002             ! Fl_Kp             - Nacelle velocity proportional feedback gain [s]
2.1000              ! Fl_U              - Wind speeds for scheduling Fl_Kp, optional if Fl_Kp is single value [m/s]

!------- FLAP ACTUATION -----------------------------------------------------
0.000000000000      ! Flp_Angle         - Initial or steady state flap angle [rad]
0.00000000e+00      ! Flp_Kp            - Blade root bending moment proportional gain for flap control [s]
0.00000000e+00      ! Flp_Ki            - Flap displacement integral gain for flap control [-]
0.174500000000      ! Flp_MaxPit        - Maximum (and minimum) flap pitch angle [rad]

!------- Open Loop Control -----------------------------------------------------
"unused"            ! OL_Filename       - Input file with open loop timeseries (absolute path or relative to this file)
0                   ! Ind_Breakpoint    - The column in OL_Filename that contains the breakpoint (time if OL_Mode = 1)
  0   0   0         ! Ind_BldPitch      - The columns in OL_Filename that contains the blade pitch (1,2,3) inputs in rad [array]
0                   ! Ind_GenTq         - The column in OL_Filename that contains the generator torque in Nm
0                   ! Ind_YawRate       - The column in OL_Filename that contains the yaw rate in rad/s
0                   ! Ind_Azimuth       - The column in OL_Filename that contains the desired azimuth position in rad (used if OL_Mode = 2)
0.0000 0.0000 0.0000 0.0000        ! RP_Gains - PID gains and Tf of derivative for rotor position control (used if OL_Mode = 2)
0                   ! Ind_CableControl  - The column(s) in OL_Filename that contains the cable control inputs in m [Used with CC_Mode = 2, must be the same size as CC_Group_N]
0                   ! Ind_StructControl - The column(s) in OL_Filename that contains the structural control inputs [Used with StC_Mode = 2, must be the same size as StC_Group_N]

!------- Pitch Actuator Model -----------------------------------------------------
3.140000000000       ! PA_CornerFreq     - Pitch actuator bandwidth/cut-off frequency [rad/s]
0.707000000000       ! PA_Damping        - Pitch actuator damping ratio [-, unused if PA_Mode = 1]

!------- Pitch Actuator Faults -----------------------------------------------------
0.00000000 0.00000000 0.00000000                 ! PF_Offsets     - Constant blade pitch offsets for blades 1-3 [rad]

!------- Active Wake Control -----------------------------------------------------
1                   ! AWC_NumModes       - Number of user-defined AWC forcing modes 
1                   ! AWC_n              - Azimuthal mode number(s) (i.e., the number and direction of the lobes of the wake structure)
1                   ! AWC_harmonic       - Harmonic(s) to apply in the AWC Inverse Coleman Transformation (only used when AWC_Mode = 2)
0.0500              ! AWC_freq           - Frequency(s) of forcing mode(s) [Hz]
1.0000              ! AWC_amp            - Pitch amplitude(s) of individual forcing mode(s) [deg]
0.0000              ! AWC_clockangle     - Initial angle(s) of forcing mode(s) [deg]

!------- External Controller Interface -----------------------------------------------------
"unused"            ! DLL_FileName        - Name/location of the dynamic library in the Bladed-DLL format
"unused"            ! DLL_InFile          - Name of input file sent to the DLL (-)
"DISCON"            ! DLL_ProcName        - Name of procedure in DLL to be called (-) 

!------- ZeroMQ Interface ---------------------------------------------------------
"tcp://localhost:5555"            ! ZMQ_CommAddress     - Communication address for ZMQ server, (e.g. "tcp://localhost:5555") 
1.000000            ! ZMQ_UpdatePeriod    - Update period at zmq interface to send measurements and wait for setpoint [sec.]
0                   ! ZMQ_ID       - Integer identifier of turbine

!------- Cable Control ---------------------------------------------------------
1                   ! CC_Group_N        - Number of cable control groups
0                   ! CC_GroupIndex     - First index for cable control group, should correspond to deltaL
20.000000           ! CC_ActTau         - Time constant for line actuator [s]

!------- Structural Controllers ---------------------------------------------------------
1                   ! StC_Group_N       - Number of cable control groups
0                   ! StC_GroupIndex    - First index for structural control group, options specified in ServoDyn summary output
