------- HydroDyn Input File ----------------------------------------------------
Floating MHK turbine hydrodynamic support structure input properties, based on the RM1 tidal current rotor with a quad-style floating platform
False            Echo           - Echo the input file data (flag)
---------------------- FLOATING PLATFORM --------------------------------------- [unused with WaveMod=6]
             1   PotMod         - Potential-flow model {0: none=no potential flow, 1: frequency-to-time-domain transforms based on WAMIT output, 2: fluid-impulse theory (FIT)} (switch)
             1   ExctnMod       - Wave-excitation model {0: no wave-excitation calculation, 1: DFT, 2: state-space} (switch) [only used when PotMod=1; STATE-SPACE REQUIRES *.ssexctn INPUT FILE]
             0   ExctnDisp      - Method of computing Wave Excitation {0: use undisplaced position, 1: use displaced position, 2: use low-pass filtered displaced position) [only used when PotMod=1 and ExctnMod>0 and SeaState's WaveMod>0]} (switch)
             0   ExctnCutOff    - Cutoff (corner) frequency of the low-pass time-filtered displaced position (Hz) [>0.0] [used only when PotMod=1, ExctnMod>0, and ExctnDisp=2]) [only used when PotMod=1 and ExctnMod>0 and SeaState's WaveMod>0]} (switch)
             0   PtfmYMod       - Model for large platform yaw offset {0: Static reference yaw offset based on PtfmRefY, 1: dynamic reference yaw offset based on low-pass filtering the PRP yaw motion with cutoff frequency PtfmYCutOff} (switch)
             0   PtfmRefY       - Constant (if PtfmYMod=0) or initial (if PtfmYMod=1) platform reference yaw offset (deg)
          0.01   PtfmYCutOff    - Cutoff frequency for the low-pass filtering of PRP yaw motion when PtfmYMod=1 [unused when PtfmYMod=0] (Hz)
            36   NExctnHdg      - Number of evenly distributed platform yaw/heading angles over the range of [-180, 180) deg for which the wave excitation shall be computed [only used when PtfmYMod=1] (-)
             1   RdtnMod        - Radiation memory-effect model {0: no memory-effect calculation, 1: convolution, 2: state-space} (switch) [only used when PotMod=1; STATE-SPACE REQUIRES *.ss INPUT FILE]
            60   RdtnTMax       - Analysis time for wave radiation kernel calculations (sec) [only used when PotMod=1 and RdtnMod>0; determines RdtnDOmega=Pi/RdtnTMax in the cosine transform; MAKE SURE THIS IS LONG ENOUGH FOR THE RADIATION IMPULSE RESPONSE FUNCTIONS TO DECAY TO NEAR-ZERO FOR THE GIVEN PLATFORM!]
     "DEFAULT"   RdtnDT         - Time step for wave radiation kernel calculations (sec) [only used when PotMod=1 and ExctnMod>0 or RdtnMod>0; DT<=RdtnDT<=0.1 recommended; determines RdtnOmegaMax=Pi/RdtnDT in the cosine transform]
             1   NBody          - Number of WAMIT bodies to be used (-) [>=1; only used when PotMod=1. If NBodyMod=1, the WAMIT data contains a vector of size 6*NBody x 1 and matrices of size 6*NBody x 6*NBody; if NBodyMod>1, there are NBody sets of WAMIT data each with a vector of size 6 x 1 and matrices of size 6 x 6]
             2   NBodyMod       - Body coupling model {1: include coupling terms between each body and NBody in HydroDyn equals NBODY in WAMIT, 2: neglect coupling terms between each body and NBODY=1 with XBODY=0 in WAMIT, 3: Neglect coupling terms between each body and NBODY=1 with XBODY=/0 in WAMIT} (switch) [only used when PotMod=1]
"MHK_RM1_Floating"    PotFile       - Root name of potential-flow model data; WAMIT output files containing the linear, nondimensionalized, hydrostatic restoring matrix (.hst), frequency-dependent hydrodynamic added mass matrix and damping matrix (.1), and frequency- and direction-dependent wave excitation force vector per unit wave amplitude (.3) (quoted string) [1 to NBody if NBodyMod>1] [MAKE SURE THE FREQUENCIES INHERENT IN THESE WAMIT FILES SPAN THE PHYSICALLY-SIGNIFICANT RANGE OF FREQUENCIES FOR THE GIVEN PLATFORM; THEY MUST CONTAIN THE ZERO- AND INFINITE-FREQUENCY LIMITS!]
             1   WAMITULEN      - Characteristic body length scale used to redimensionalize WAMIT output (meters) [1 to NBody if NBodyMod>1] [only used when PotMod=1]
             0   PtfmRefxt      - The xt offset of the body reference point(s) from (0,0,0) (meters) [1 to NBody] [only used when PotMod=1]
             0   PtfmRefyt      - The yt offset of the body reference point(s) from (0,0,0) (meters) [1 to NBody] [only used when PotMod=1]
             0   PtfmRefzt      - The zt offset of the body reference point(s) from (0,0,0) (meters) [1 to NBody] [only used when PotMod=1. If NBodyMod=2,PtfmRefzt=0.0]
             0   PtfmRefztRot   - The rotation about zt of the body reference frame(s) from xt/yt (degrees) [1 to NBody] [only used when PotMod=1]
       2671.85   PtfmVol0       - Displaced volume of water when the body is in its undisplaced position (m^3) [1 to NBody] [only used when PotMod=1; USE THE SAME VALUE COMPUTED BY WAMIT AS OUTPUT IN THE .OUT FILE!]
             0   PtfmCOBxt      - The xt offset of the center of buoyancy (COB) from (0,0) (meters) [1 to NBody] [only used when PotMod=1]
             0   PtfmCOByt      - The yt offset of the center of buoyancy (COB) from (0,0) (meters) [1 to NBody] [only used when PotMod=1]
---------------------- 2ND-ORDER FLOATING PLATFORM FORCES ---------------------- [unused with WaveMod=0 or 6, or PotMod=0 or 2]
             0   MnDrift        - Mean-drift 2nd-order forces computed                                       {0: None; [7, 8, 9, 10, 11, or 12]: WAMIT file to use} [Only one of MnDrift, NewmanApp, or DiffQTF can be non-zero. If NBody>1, MnDrift  /=8]
             0   NewmanApp      - Mean- and slow-drift 2nd-order forces computed with Newman's approximation {0: None; [7, 8, 9, 10, 11, or 12]: WAMIT file to use} [Only one of MnDrift, NewmanApp, or DiffQTF can be non-zero. If NBody>1, NewmanApp/=8. Used only when WaveDirMod=0]
             0   DiffQTF        - Full difference-frequency 2nd-order forces computed with full QTF          {0: None; [10, 11, or 12]: WAMIT file to use}          [Only one of MnDrift, NewmanApp, or DiffQTF can be non-zero]
             0   SumQTF         - Full summation -frequency 2nd-order forces computed with full QTF          {0: None; [10, 11, or 12]: WAMIT file to use}
---------------------- PLATFORM ADDITIONAL STIFFNESS AND DAMPING  -------------- [unused with PotMod=0 or 2]
             0   AddF0    - Additional preload (N, N-m)  [If NBodyMod=1, one size 6*NBody x 1 vector; if NBodyMod>1, NBody size 6 x 1 vectors]
             0
             0
             0
             0
             0
             0             0             0             0             0             0   AddCLin  - Additional linear stiffness (N/m, N/rad, N-m/m, N-m/rad)  [If NBodyMod=1, one size 6*NBody x 6*NBody matrix; if NBodyMod>1, NBody size 6 x 6 matrices]
             0             0             0             0             0             0
             0             0             0             0             0             0
             0             0             0             0             0             0
             0             0             0             0             0             0
             0             0             0             0             0             0
             0             0             0             0             0             0   AddBLin  - Additional linear damping(N/(m/s), N/(rad/s), N-m/(m/s), N-m/(rad/s))  [If NBodyMod=1, one size 6*NBody x 6*NBody matrix; if NBodyMod>1, NBody size 6 x 6 matrices]
             0             0             0             0             0             0
             0             0             0             0             0             0
             0             0             0             0             0             0
             0             0             0             0             0             0
             0             0             0             0             0             0
             0             0             0             0             0             0   AddBQuad - Additional quadratic drag(N/(m/s)^2, N/(rad/s)^2, N-m(m/s)^2, N-m/(rad/s)^2)  [If NBodyMod=1, one size 6*NBody x 6*NBody matrix; if NBodyMod>1, NBody size 6 x 6 matrices]
             0             0             0             0             0             0
             0             0             0             0             0             0
             0             0             0             0             0             0
             0             0             0             0             0             0
             0             0             0             0             0             0
---------------------- STRIP THEORY OPTIONS --------------------------------------
             0   WaveDisp       - Method of computing Wave Kinematics {0: use undisplaced position, 1: use displaced position) } (switch)
             0   AMMod          - Method of computing distributed added-mass force. (0: Only and always on nodes below SWL at the undisplaced position. 2: Up to the instantaneous free surface) [overwrite to 0 when WaveMod = 0 or 6 or when WaveStMod = 0 in SeaState]
---------------------- AXIAL COEFFICIENTS --------------------------------------
             2   NAxCoef        - Number of axial coefficients (-)
AxCoefID  AxCd     AxCa     AxCp    AxFDMod   AxVnCOff  AxFDLoFSc
   (-)    (-)      (-)      (-)      (-)       (-)        (-)
    1     0.00     0.00     0.00      0       -1.00      1.00	  ! Columns / Braces (no exposed member ends)
    2     1.00     1.00     1.00      0       -1.00      1.00	  ! Heave Plates
---------------------- MEMBER JOINTS -------------------------------------------
            33   NJoints        - Number of joints (-)   [must be exactly 0 or at least 2]
JointID   Jointxi     Jointyi     Jointzi  JointAxID   JointOvrlp   [JointOvrlp= 0: do nothing at joint, 1: eliminate overlaps by calculating super member]
   (-)     (m)         (m)         (m)        (-)       (switch)
    0    28.00000     0.00000   -10.00000      1            0		    ! Downstream Column
    1    28.00000     0.00000     6.00000      1            0
    2   -28.00000     0.00000   -10.00000      1            0		    ! Upstream Column
    3   -28.00000     0.00000     6.00000      1            0
    4     0.00000   -12.00000   -10.00000      1            0		    ! Starboard Column
    5     0.00000   -12.00000     6.00000      1            0    
    6     0.00000    12.00000   -10.00000      1            0		    ! Port Column
    7     0.00000    12.00000     6.00000      1            0    
    8     3.67658    10.42430     4.50000      1            0		    ! Upper Braces
    9    24.32340     1.57568     4.50000      1            0
   10     3.67658   -10.42430     4.50000      1            0
   11    24.32340    -1.57568     4.50000      1            0
   12    -3.67658    10.42430     4.50000      1            0
   13   -24.32340     1.57568     4.50000      1            0
   14    -3.67658   -10.42430     4.50000      1            0
   15   -24.32340    -1.57568     4.50000      1            0
   16     3.67658    10.42430    -8.50000      1            0		    ! Lower Braces
   17    24.32340     1.57568    -8.50000      1            0
   18     3.67658   -10.42430    -8.50000      1            0
   19    24.32340    -1.57568    -8.50000      1            0
   20    -3.67658    10.42430    -8.50000      1            0
   21   -24.32340     1.57568    -8.50000      1            0
   22    -3.67658   -10.42430    -8.50000      1            0
   23   -24.32340    -1.57568    -8.50000      1            0
   24     0.00000    -8.00000     4.50000      1            0		    ! Tower Braces
   25     0.00000     8.00000     4.50000      1            0    
   26     0.00000    -8.00000    -8.50000      1            0    
   27     0.00000     8.00000    -8.50000      1            0    
   28     0.00000     0.00000    -8.50000      1            0    
   29    28.00000     0.00000   -10.50000      2            0		    ! Heave Plates
   30   -28.00000     0.00000   -10.50000      2            0
   31     0.00000   -12.00000   -10.50000      2            0
   32     0.00000    12.00000   -10.50000      2            0	 
---------------------- MEMBER CROSS-SECTION PROPERTIES -------------------------
             4   NPropSets      - Number of member property sets (-)
PropSetID    PropD         PropThck
   (-)        (m)            (m)
    0        8.00000        0.02000		! Columns
    1        2.00000        0.02000		! Braces
    2        2.00000        0.08100		! Flooded Braces (not flooded in hydrodyn)
    3       12.00000        0.39250	! Flooded Heave Plates (not flooded in hydrodyn)
---------------------- SIMPLE HYDRODYNAMIC COEFFICIENTS (model 1) --------------
     SimplCd    SimplCdMG    SimplCa    SimplCaMG    SimplCp    SimplCpMG   SimplAxCd  SimplAxCdMG   SimplAxCa  SimplAxCaMG  SimplAxCp   SimplAxCpMG    SimplCb    SimplCbMG
       (-)         (-)         (-)         (-)         (-)         (-)         (-)         (-)         (-)         (-)         (-)         (-)            (-)         (-)
       1.20        0.00        1.00        0.00        1.00        1.00        0.00        0.00        0.00        0.00        1.00        1.00           1.00        1.00
---------------------- DEPTH-BASED HYDRODYNAMIC COEFFICIENTS (model 2) ---------
             0   NCoefDpth       - Number of depth-dependent coefficients (-)
Dpth      DpthCd   DpthCdMG   DpthCa   DpthCaMG       DpthCp   DpthCpMG   DpthAxCd   DpthAxCdMG   DpthAxCa   DpthAxCaMG   DpthAxCp   DpthAxCpMG   DpthCb   DpthCbMG
(m)       (-)      (-)        (-)      (-)            (-)      (-)        (-)        (-)          (-)        (-)          (-)        (-)           (-)      (-)
---------------------- MEMBER-BASED HYDRODYNAMIC COEFFICIENTS (model 3) --------
             0   NCoefMembers       - Number of member-based coefficients (-)
MemberID    MemberCd1     MemberCd2    MemberCdMG1   MemberCdMG2    MemberCa1     MemberCa2    MemberCaMG1   MemberCaMG2    MemberCp1     MemberCp2    MemberCpMG1   MemberCpMG2   MemberAxCd1   MemberAxCd2  MemberAxCdMG1 MemberAxCdMG2  MemberAxCa1   MemberAxCa2  MemberAxCaMG1 MemberAxCaMG2  MemberAxCp1  MemberAxCp2   MemberAxCpMG1   MemberAxCpMG2    MemberCb1     MemberCb2    MemberCbMG1   MemberCbMG2
   (-)         (-)           (-)           (-)           (-)           (-)           (-)           (-)           (-)           (-)           (-)           (-)           (-)           (-)           (-)           (-)           (-)           (-)           (-)           (-)           (-)           (-)           (-)           (-)           (-)              (-)           (-)           (-)           (-)
-------------------- MEMBERS -------------------------------------------------
            20   NMembers       - Number of members (-)
MemberID  MJointID1  MJointID2  MPropSetID1  MPropSetID2  MDivSize   MCoefMod   MHstLMod  PropPot   [MCoefMod=1: use simple coeff table, 2: use depth-based coeff table, 3: use member-based coeff table] [ PropPot/=0 if member is modeled with potential-flow theory]
  (-)        (-)        (-)         (-)          (-)        (m)      (switch)   (switch)  (flag)
    0         0          1           0            0         0.1000      1          1       TRUE		 ! Columns
    1         2          3           0            0         0.1000      1          1       TRUE
    2         4          5           0            0         0.1000      1          1       TRUE
    3         6          7           0            0         0.1000      1          1       TRUE  
    4         8          9           1            1         0.1000      1          1       TRUE		 ! Upper Braces  
    5        10         11           1            1         0.1000      1          1       TRUE
    6        12         13           1            1         0.1000      1          1       TRUE
    7        14         15           1            1         0.1000      1          1       TRUE
    8        16         17           2            2         0.1000      1          1       TRUE		 ! Lower Braces  
    9        18         19           2            2         0.1000      1          1       TRUE
   10        20         21           2            2         0.1000      1          1       TRUE
   11        22         23           2            2         0.1000      1          1       TRUE
   12        24         25           1            1         0.1000      1          1       TRUE		 ! Tower Braces
   13        26         27           1            1         0.1000      1          1       TRUE
   14        24         28           1            1         0.1000      1          1       TRUE
   15        25         28           1            1         0.1000      1          1       TRUE
   16         0         29           3            3         0.1000      1          1       TRUE		 ! Heave Plates
   17         2         30           3            3         0.1000      1          1       TRUE
   18         4         31           3            3         0.1000      1          1       TRUE
   19         6         32           3            3         0.1000      1          1       TRUE
---------------------- FILLED MEMBERS ------------------------------------------
             0   NFillGroups     - Number of filled member groups (-) [If FillDens = DEFAULT, then FillDens = WtrDens; FillFSLoc is related to MSL2SWL]
FillNumM FillMList             FillFSLoc     FillDens
(-)      (-)                   (m)           (kg/m^3)
---------------------- MARINE GROWTH -------------------------------------------
             0   NMGDepths      - Number of marine-growth depths specified (-)
MGDpth     MGThck       MGDens
(m)        (m)         (kg/m^3)
---------------------- MEMBER OUTPUT LIST --------------------------------------
             0   NMOutputs      - Number of member outputs (-) [must be < 10]
MemberID   NOutLoc    NodeLocs [NOutLoc < 10; node locations are normalized distance from the start of the member, and must be >=0 and <= 1] [unused if NMOutputs=0]
  (-)        (-)        (-)
---------------------- JOINT OUTPUT LIST ---------------------------------------
             0   NJOutputs      - Number of joint outputs [Must be < 10]
             0   JOutLst        - List of JointIDs which are to be output (-)[unused if NJOutputs=0]
---------------------- OUTPUT --------------------------------------------------
True             HDSum          - Output a summary file [flag]
False            OutAll         - Output all user-specified member and joint loads (only at each member end, not interior locations) [flag]
             2   OutSwtch       - Output requested channels to: [1=Hydrodyn.out, 2=GlueCode.out, 3=both files]
"E15.7e2"        OutFmt         - Output format for numerical results (quoted string) [not checked for validity!]
"A11"            OutSFmt        - Output format for header strings (quoted string) [not checked for validity!]
---------------------- OUTPUT CHANNELS -----------------------------------------
Wave1Elev                 - Wave elevation at the platform reference point (0,  0)
HydroFxi                  - Buoyancy force [N] in the X direction.
HydroFyi                  - Buoyancy force [N] in the Y direction.
HydroFzi                  - Buoyancy force [N] in the vertical direction (Z).
END of output channels and end of file. (the word "END" must appear in the first 3 columns of this line)