! Controller parameter input file for the NREL-5MW wind turbine
!    - File written using ROSCO version 2.9.4 controller tuning logic on 12/11/24

!------- SIMULATION CONTROL ------------------------------------------------------------
1                   ! LoggingLevel		- {0: write no debug files, 1: write standard output .dbg-file, 2: LoggingLevel 1 + ROSCO LocalVars (.dbg2) 3: LoggingLevel 2 + complete avrSWAP-array (.dbg3)}
0                   ! DT_Out    		  - {Time step to output .dbg* files, or 0 to match sampling period of OpenFAST}
1                   ! Ext_Interface		- (0 - use standard bladed interface, 1 - Use the extened DLL interface introduced in OpenFAST 3.5.0.)
0                   ! Echo		        - (0 - no Echo, 1 - Echo input data to <RootName>.echo)

!------- CONTROLLER FLAGS -------------------------------------------------
1                   ! F_LPFType			  - (1: first-order low-pass filter, 2: second-order low-pass filter), [rad/s] (currently filters generator speed and pitch control signals
0                   ! IPC_ControlMode	- Turn Individual Pitch Control (IPC) for fatigue load reductions (pitch contribution) {0: off, 1: 1P reductions, 2: 1P+2P reductions}
2                   ! VS_ControlMode	- Generator torque control mode in above rated conditions (0- no torque control, 1- k*omega^2 with PI transitions, 2- WSE TSR Tracking, 3- Power-based TSR Tracking)}
1                   ! VS_ConstPower  	- Do constant power torque control, where above rated torque varies, 0 for constant torque}
1                   ! PC_ControlMode  - Blade pitch control mode {0: No pitch, fix to fine pitch, 1: active PI blade pitch control}
0                   ! Y_ControlMode   - Yaw control mode {0: no yaw control, 1: yaw rate control, 2: yaw-by-IPC}
1                   ! SS_Mode         - Setpoint Smoother mode {0: no setpoint smoothing, 1: introduce setpoint smoothing}
0                   ! PRC_Mode        - Power reference tracking mode{0: power control disabled, 1: lookup table from wind speed to generator speed setpoints, 2: change speed, torque, pitch to control power}
2                   ! WE_Mode         - Wind speed estimator mode {0: One-second low pass filtered hub height wind speed, 1: Immersion and Invariance Estimator, 2: Extended Kalman Filter}
1                   ! PS_Mode         - Pitch saturation mode {0: no pitch saturation, 1: implement pitch saturation}
0                   ! SD_Mode         - Shutdown mode {0: no shutdown procedure, 1: shutdown enabled}
0                   ! Fl_Mode         - Floating specific feedback mode {0: no nacelle velocity feedback, 1: feed back translational velocity, 2: feed back rotational veloicty}
0                   ! TD_Mode         - Tower damper mode (0- no tower damper, 1- feed back translational nacelle accelleration to pitch angle
0                   ! TRA_Mode        - Tower resonance avoidance mode (0- no tower resonsnace avoidance, 1- use torque control setpoints to avoid a specific frequency
0                   ! Flp_Mode        - Flap control mode {0: no flap control, 1: steady state flap angle, 2: Proportional flap control, 2: Cyclic (1P) flap control}
0                   ! OL_Mode         - Open loop control mode {0: no open loop control, 1: open loop control vs. time, 2: rotor position control}
0                   ! PA_Mode         - Pitch actuator mode {0 - not used, 1 - first order filter, 2 - second order filter}
0                   ! PF_Mode         - Pitch fault mode {0 - not used, 1 - constant offset on one or more blades}
0                   ! AWC_Mode        - Active wake control {0 - not used, 1 - complex number method, 2 - Coleman transform method}
0                   ! Ext_Mode        - External control mode {0 - not used, 1 - call external dynamic library}
0                   ! ZMQ_Mode        - Fuse ZeroMQ interface {0: unused, 1: Yaw Control}
0                   ! CC_Mode         - Cable control mode [0- unused, 1- User defined, 2- Open loop control]
0                   ! StC_Mode        - Structural control mode [0- unused, 1- User defined, 2- Open loop control]

!------- FILTERS ----------------------------------------------------------
1.57080             ! F_LPFCornerFreq	  - Corner frequency (-3dB point) in the low-pass filters, [rad/s]
0.00000             ! F_LPFDamping		  - Damping coefficient {used only when F_FilterType = 2} [-]
0                   ! F_NumNotchFilts   - Number of notch filters placed on sensors
0.0000              ! F_NotchFreqs      - Natural frequency of the notch filters. Array with length F_NumNotchFilts
0.0000              ! F_NotchBetaNum    - Damping value of numerator (determines the width of notch). Array with length F_NumNotchFilts, [-]
0.0000              ! F_NotchBetaDen    - Damping value of denominator (determines the depth of notch). Array with length F_NumNotchFilts, [-]
0                   ! F_GenSpdNotch_N   - Number of notch filters on generator speed
0                   ! F_GenSpdNotch_Ind - Indices of notch filters on generator speed
0                   ! F_TwrTopNotch_N   - Number of notch filters on tower top acceleration signal
0                   ! F_TwrTopNotch_Ind - Indices of notch filters on tower top acceleration signal
0.62830             ! F_SSCornerFreq    - Corner frequency (-3dB point) in the first order low pass filter for the setpoint smoother, [rad/s].
0.20944             ! F_WECornerFreq    - Corner frequency (-3dB point) in the first order low pass filter for the wind speed estimate [rad/s].
0.17952             ! F_YawErr          - Low pass filter corner frequency for yaw controller [rad/s].
0.000000  1.000000  ! F_FlCornerFreq    - Natural frequency and damping in the second order low pass filter of the tower-top fore-aft motion for floating feedback control [rad/s, -].
0.01042             ! F_FlHighPassFreq  - Natural frequency of first-order high-pass filter for nacelle fore-aft motion [rad/s].
0.0000 1.0000      ! F_FlpCornerFreq   - Corner frequency and damping in the second order low pass filter of the blade root bending moment for flap control

!------- BLADE PITCH CONTROL ----------------------------------------------
30                  ! PC_GS_n			- Amount of gain-scheduling table entries
0.056789  0.084492  0.106018  0.124332  0.140807  0.155903  0.169931  0.183270  0.196062  0.208354  0.220050  0.231503  0.242646  0.253377  0.263967  0.274233  0.284343  0.294292  0.303997  0.313626  0.322957  0.332260  0.341319  0.350368  0.359221  0.368059  0.376700  0.385301  0.393691  0.402050                ! PC_GS_angles	    - Gain-schedule table: pitch angles [rad].
-0.020751  -0.018231  -0.016188  -0.014498  -0.013078  -0.011868  -0.010823  -0.009913  -0.009113  -0.008404  -0.007772  -0.007204  -0.006692  -0.006227  -0.005803  -0.005415  -0.005059  -0.004731  -0.004427  -0.004146  -0.003884  -0.003640  -0.003411  -0.003198  -0.002997  -0.002809  -0.002631  -0.002463  -0.002305  -0.002155                ! PC_GS_KP		- Gain-schedule table: pitch controller kp gains [s].
-0.008417  -0.007536  -0.006822  -0.006232  -0.005735  -0.005312  -0.004947  -0.004629  -0.004350  -0.004102  -0.003881  -0.003682  -0.003503  -0.003341  -0.003192  -0.003057  -0.002932  -0.002818  -0.002712  -0.002613  -0.002522  -0.002436  -0.002357  -0.002282  -0.002212  -0.002146  -0.002084  -0.002025  -0.001970  -0.001917                ! PC_GS_KI		- Gain-schedule table: pitch controller ki gains [-].
0.000000  0.000000  0.000000  0.000000  0.000000  0.000000  0.000000  0.000000  0.000000  0.000000  0.000000  0.000000  0.000000  0.000000  0.000000  0.000000  0.000000  0.000000  0.000000  0.000000  0.000000  0.000000  0.000000  0.000000  0.000000  0.000000  0.000000  0.000000  0.000000  0.000000                ! PC_GS_KD			- Gain-schedule table: pitch controller kd gains
0.000000  0.000000  0.000000  0.000000  0.000000  0.000000  0.000000  0.000000  0.000000  0.000000  0.000000  0.000000  0.000000  0.000000  0.000000  0.000000  0.000000  0.000000  0.000000  0.000000  0.000000  0.000000  0.000000  0.000000  0.000000  0.000000  0.000000  0.000000  0.000000  0.000000                ! PC_GS_TF			- Gain-schedule table: pitch controller tf gains (derivative filter)
1.570000000000      ! PC_MaxPit			- Maximum physical pitch limit, [rad].
0.000880000000      ! PC_MinPit			- Minimum physical pitch limit, [rad].
0.174500000000      ! PC_MaxRat			- Maximum pitch rate (in absolute value) in pitch controller, [rad/s].
-0.17450000000      ! PC_MinRat			- Minimum pitch rate (in absolute value) in pitch controller, [rad/s].
122.9096700000      ! PC_RefSpd			- Desired (reference) HSS speed for pitch controller, [rad/s].
0.000880000000      ! PC_FinePit		- Record 5: Below-rated pitch angle set-point, [rad]
0.017450000000      ! PC_Switch			- Angle above lowest minimum pitch angle for switch, [rad]

!------- INDIVIDUAL PITCH CONTROL -----------------------------------------
9.120000  11.400000  ! IPC_Vramp		- Start and end wind speeds for cut-in ramp function. First entry: IPC inactive, second entry: IPC fully active. [m/s]
2                   ! IPC_SatMode		- IPC Saturation method (0 - no saturation (except by PC_MinPit), 1 - saturate by PS_BldPitchMin, 2 - saturate sotfly (full IPC cycle) by PC_MinPit, 3 - saturate softly by PS_BldPitchMin)
0.3                 ! IPC_IntSat		- Integrator saturation (maximum signal amplitude contribution to pitch from IPC), [rad]
0.000e+00 0.000e+00 ! IPC_KP			- Proportional gain for the individual pitch controller: first parameter for 1P reductions, second for 2P reductions, [-]
0.000e+00 0.000e+00 ! IPC_KI			- Integral gain for the individual pitch controller: first parameter for 1P reductions, second for 2P reductions, [-]
0.000000  0.000000  ! IPC_aziOffset		- Phase offset added to the azimuth angle for the individual pitch controller, [rad]. 
0.0                 ! IPC_CornerFreqAct - Corner frequency of the first-order actuators model, to induce a phase lag in the IPC signal {0: Disable}, [rad/s]

!------- VS TORQUE CONTROL ------------------------------------------------
94.40000000000      ! VS_GenEff			- Generator efficiency mechanical power -> electrical power, [should match the efficiency defined in the generator properties!], [%]
43093.51876000      ! VS_ArSatTq		- Above rated generator torque PI control saturation, [Nm]
40000.00000000      ! VS_MaxRat			- Maximum torque rate (in absolute value) in torque controller, [Nm/s].
47402.87063000      ! VS_MaxTq			- Maximum generator torque in Region 3 (HSS side), [Nm].
0.000000000000      ! VS_MinTq			- Minimum generator torque (HSS side), [Nm].
35.29006000000      ! VS_MinOMSpd		- Minimum generator speed [rad/s]
2.185750000000      ! VS_Rgn2K		- Generator torque constant in Region 2 (HSS side). Only used in VS_ControlMode = 1,3
5000000.000000      ! VS_RtPwr			- Wind turbine rated power [W]
43093.51876000      ! VS_RtTq			- Rated torque, [Nm].
122.9096700000      ! VS_RefSpd			- Rated generator speed [rad/s]
1                   ! VS_n				- Number of generator PI torque controller gains
-654.312360000      ! VS_KP				- Proportional gain for generator PI torque controller [-]. (Only used in the transitional 2.5 region if VS_ControlMode =/ 2)
-104.507080000      ! VS_KI				- Integral gain for generator PI torque controller [s]. (Only used in the transitional 2.5 region if VS_ControlMode =/ 2)
7.64                ! VS_TSRopt		    - Power-maximizing region 2 tip-speed-ratio. Only used in VS_ControlMode = 2.
0.314000000000      ! VS_PwrFiltF		- Low pass filter on power used to determine generator speed set point.  Only used in VS_ControlMode = 3.

!------- SETPOINT SMOOTHER ---------------------------------------------
1.00000             ! SS_VSGain         - Variable speed torque controller setpoint smoother gain, [-].
0.00100             ! SS_PCGain         - Collective pitch controller setpoint smoother gain, [-].

!------- POWER REFERENCE TRACKING --------------------------------------
0                   ! PRC_Comm   - Power reference communication mode when PRC_Mode = 2, 0- use constant DISCON inputs, 1- use open loop inputs, 2- use ZMQ inputs
1.00000             ! PRC_R_Torque   - Constant power rating through changing the rated torque, used if PRC_Mode = 2, PRC_Comm = 0, default is 1, effective above rated [-]
1.00000             ! PRC_R_Speed   - Constant power rating through changing the rated generator speed, used if PRC_Mode = 2, PRC_Comm = 0, default is 1, effective above rated [-]
1.00000             ! PRC_R_Pitch   - Constant power rating through changing the fine pitch angle, used if PRC_Mode = 2, PRC_Comm = 0, default is 1, effective below rated [-]
20                  ! PRC_Table_n   - Number of elements in PRC_R to _Pitch table.  Used if PRC_Mode = 1.
0.0000 0.0526 0.1053 0.1579 0.2105 0.2632 0.3158 0.3684 0.4211 0.4737 0.5263 0.5789 0.6316 0.6842 0.7368 0.7895 0.8421 0.8947 0.9474 1.0000      ! PRC_R_Table   - Table of turbine rating versus fine pitch (PRC_Pitch_Table), length should be PRC_Table_n, default is 1 [-].  Used if PRC_Mode = 1.
0.1933 0.1876 0.1819 0.1761 0.1701 0.1640 0.1577 0.1511 0.1446 0.1375 0.1303 0.1227 0.1147 0.1060 0.0969 0.0865 0.0750 0.0615 0.0436 0.0018      ! PRC_Pitch_Table   - Table of fine pitch versus PRC_R_Table, length should be PRC_Table_n [rad].  Used if PRC_Mode = 1.
2                   ! PRC_n			    -  Number of elements in PRC_WindSpeeds and PRC_GenSpeeds array
0.07854             ! PRC_LPF_Freq   - Frequency of the low pass filter on the wind speed estimate used to set PRC_GenSpeeds [rad/s]
3.0000 25.0000      ! PRC_WindSpeeds   - Array of wind speeds used in rotor speed vs. wind speed lookup table [m/s]
0.7917 0.7917       ! PRC_GenSpeeds   - Array of generator speeds corresponding to PRC_WindSpeeds [rad/s]

!------- WIND SPEED ESTIMATOR ---------------------------------------------
63.000              ! WE_BladeRadius	- Blade length (distance from hub center to blade tip), [m]
1                   ! WE_CP_n			- Amount of parameters in the Cp array
0.0                 ! WE_CP - Parameters that define the parameterized CP(lambda) function
0.0          		  ! WE_Gamma			- Adaption gain of the wind speed estimator algorithm [m/rad]
97.0                ! WE_GearboxRatio	- Gearbox ratio [>=1],  [-]
43702538.05700     ! WE_Jtot			- Total drivetrain inertia, including blades, hub and casted generator inertia to LSS, [kg m^2]
1.225               ! WE_RhoAir			- Air density, [kg m^-3]
"Cp_Ct_Cq.NREL5MW.txt"      ! PerfFileName      - File containing rotor performance tables (Cp,Ct,Cq) (absolute path or relative to this file)
36      26          ! PerfTableSize     - Size of rotor performance tables, first number refers to number of blade pitch angles, second number referse to number of tip-speed ratios
60                  ! WE_FOPoles_N      - Number of first-order system poles used in EKF
3.0000 3.2897 3.5793 3.8690 4.1586 4.4483 4.7379 5.0276 5.3172 5.6069 5.8966 6.1862 6.4759 6.7655 7.0552 7.3448 7.6345 7.9241 8.2138 8.5034 8.7931 9.0828 9.3724 9.6621 9.9517 10.2414 10.5310 10.8207 11.1103 11.4000 11.8533 12.3067 12.7600 13.2133 13.6667 14.1200 14.5733 15.0267 15.4800 15.9333 16.3867 16.8400 17.2933 17.7467 18.2000 18.6533 19.1067 19.5600 20.0133 20.4667 20.9200 21.3733 21.8267 22.2800 22.7333 23.1867 23.6400 24.0933 24.5467 25.0000               ! WE_FOPoles_v      - Wind speeds corresponding to first-order system poles [m/s]
-0.01640352 -0.01798730 -0.01957109 -0.02115488 -0.02273867 -0.02432245 -0.02590624 -0.02749003 -0.02907382 -0.03065761 -0.03224139 -0.03382518 -0.03540897 -0.03699276 -0.03857654 -0.04016033 -0.04174412 -0.04332791 -0.04491170 -0.04649548 -0.04807927 -0.04966306 -0.05124685 -0.05283063 -0.05441442 -0.05599821 -0.05763347 -0.05907205 -0.06912889 -0.05993737 0.02104202 0.01345023 0.00276274 -0.00926304 -0.02225327 -0.03584614 -0.04980912 -0.06421207 -0.07916015 -0.09462203 -0.11009734 -0.12599172 -0.14216388 -0.15844606 -0.17538164 -0.19228714 -0.20938601 -0.22668396 -0.24406726 -0.26206186 -0.28002312 -0.29859942 -0.31701731 -0.33587649 -0.35458243 -0.37383930 -0.39323557 -0.41334882 -0.43349424 -0.45411584               ! WE_FOPoles        - First order system poles [1/s]

!------- YAW CONTROL ------------------------------------------------------
0.00000             ! Y_uSwitch		- Wind speed to switch between Y_ErrThresh. If zero, only the second value of Y_ErrThresh is used [m/s]
4.000000  8.000000  ! Y_ErrThresh    - Yaw error threshold/deadbands. Turbine begins to yaw when it passes this. If Y_uSwitch is zero, only the second value is used. [deg].
0.00870             ! Y_Rate			- Yaw rate [rad/s]
0.00000             ! Y_MErrSet		- Integrator saturation (maximum signal amplitude contribution to pitch from yaw-by-IPC), [rad]
0.00000             ! Y_IPC_IntSat		- Integrator saturation (maximum signal amplitude contribution to pitch from yaw-by-IPC), [rad]
0.00000             ! Y_IPC_KP			- Yaw-by-IPC proportional controller gain Kp
0.00000             ! Y_IPC_KI			- Yaw-by-IPC integral controller gain Ki

!------- TOWER CONTROL ------------------------------------------------------
0.00000             ! TRA_ExclSpeed	    - Rotor speed for exclusion [LSS, rad/s]
0.00000             ! TRA_ExclBand	    - Size of the rotor frequency exclusion band [LSS, rad/s]. Torque controller reference will be TRA_ExclSpeed +/- TRA_ExlBand/2
0.00000e+00         ! TRA_RateLimit	    - Rate limit of change in rotor speed reference [LSS, rad/s].  Suggested to be VS_RefSpd/400.
0.00000             ! FA_KI				- Integral gain for the fore-aft tower damper controller,  [rad*s/m]
0.00000             ! FA_HPFCornerFreq	- Corner frequency (-3dB point) in the high-pass filter on the fore-aft acceleration signal [rad/s]
0.00000             ! FA_IntSat			- Integrator saturation (maximum signal amplitude contribution to pitch from FA damper), [rad]

!------- MINIMUM PITCH SATURATION -------------------------------------------
60                  ! PS_BldPitchMin_N  - Number of values in minimum blade pitch lookup table (should equal number of values in PS_WindSpeeds and PS_BldPitchMin)
3.000 3.290 3.579 3.869 4.159 4.448 4.738 5.028 5.317 5.607 5.897 6.186 6.476 6.766 7.055 7.345 7.634 7.924 8.214 8.503 8.793 9.083 9.372 9.662 9.952 10.241 10.531 10.821 11.110 11.400 11.853 12.307 12.760 13.213 13.667 14.120 14.573 15.027 15.480 15.933 16.387 16.840 17.293 17.747 18.200 18.653 19.107 19.560 20.013 20.467 20.920 21.373 21.827 22.280 22.733 23.187 23.640 24.093 24.547 25.000               ! PS_WindSpeeds     - Wind speeds corresponding to minimum blade pitch angles [m/s]
0.001      0.001      0.001      0.001      0.001      0.001      0.001      0.001      0.001      0.001      0.001      0.001      0.001      0.001      0.001      0.001      0.001      0.001      0.001      0.001      0.001      0.001      0.001      0.001      0.001      0.011      0.023      0.032      0.040      0.047      0.059      0.070      0.081      0.091      0.102      0.112      0.122      0.131      0.141      0.150      0.160      0.169      0.178      0.187      0.196      0.205      0.214      0.223      0.232      0.240      0.249      0.257      0.266      0.274      0.282      0.290      0.299      0.307      0.315      0.323                    ! PS_BldPitchMin    - Minimum blade pitch angles [rad]

!------- SHUTDOWN -----------------------------------------------------------
0                   ! SD_TimeActivate        - Time to acitvate shutdown modes, [s]
0                   ! SD_EnablePitch         - Shutdown when collective blade pitch exceeds a threshold, [-]
0                   ! SD_EnableYawError      - Shutdown when yaw error exceeds a threshold, [-]
0                   ! SD_EnableGenSpeed      - Shutdown when generator speed exceeds a threshold, [-]
0                   ! SD_EnableTime          - Shutdown at a predefined time, [-]
0.698100000000      ! SD_MaxPit              - Maximum blade pitch angle to initiate shutdown, [rad]
0.418880000000      ! SD_PitchCornerFreq     - Cutoff Frequency for first order low-pass filter for blade pitch angle for shutdown, [rad/s]
30.00000000000      ! SD_MaxYawError         - Maximum yaw error to initiate shutdown, [deg]
0.418880000000      ! SD_YawErrorCornerFreq  - Cutoff Frequency for first order low-pass filter for yaw error for shutdown, [rad/s]
10.00000000000      ! SD_MaxGenSpd           - Maximum generator speed to initiate shutdown, [rad/s]
0.418880000000      ! SD_GenSpdCornerFreq    - Cutoff Frequency for first order low-pass filter for generator speed for shutdown, [rad/s] 
9999.000000000      ! SD_Time                - Shutdown time, [s]
1                   ! SD_Method              - Shutdown method {1: Reduce generator torque and increase blade pitch}, [-]
40000.00000000      ! SD_MaxTorqueRate       - Maximum torque rate for shutdown, [Nm/s]
0.174500000000      ! SD_MaxPitchRate        - Maximum pitch rate used for shutdown, [rad/s]

!------- Floating -----------------------------------------------------------
1                   ! Fl_n              - Number of Fl_Kp gains in gain scheduling, optional with default of 1
0.0000              ! Fl_Kp             - Nacelle velocity proportional feedback gain [s]
0.0000              ! Fl_U              - Wind speeds for scheduling Fl_Kp, optional if Fl_Kp is single value [m/s]

!------- FLAP ACTUATION -----------------------------------------------------
0.000000000000      ! Flp_Angle         - Initial or steady state flap angle [rad]
0.00000000e+00      ! Flp_Kp            - Blade root bending moment proportional gain for flap control [s]
0.00000000e+00      ! Flp_Ki            - Flap displacement integral gain for flap control [-]
0.174500000000      ! Flp_MaxPit        - Maximum (and minimum) flap pitch angle [rad]

!------- Open Loop Control -----------------------------------------------------
"unused"            ! OL_Filename       - Input file with open loop timeseries (absolute path or relative to this file)
0                   ! OL_BP_Mode        - Breakpoint mode for open loop control, 0 - indexed by time (default), 1 - indexed by wind speed]
0.000000            ! OL_BP_FiltFreq    - Natural frequency of 1st order filter on breakpoint for open loop control. 0 will skip filter.
0                   ! Ind_Breakpoint    - The column in OL_Filename that contains the breakpoint (time if OL_Mode = 1)
  0   0   0         ! Ind_BldPitch      - The columns in OL_Filename that contains the blade pitch (1,2,3) inputs in rad [array]
0                   ! Ind_GenTq         - The column in OL_Filename that contains the generator torque in Nm
0                   ! Ind_YawRate       - The column in OL_Filename that contains the yaw rate in rad/s
0                   ! Ind_Azimuth       - The column in OL_Filename that contains the desired azimuth position in rad (used if OL_Mode = 2)
0.0000 0.0000 0.0000 0.0000        ! RP_Gains - PID gains and Tf of derivative for rotor position control (used if OL_Mode = 2)
0                   ! Ind_CableControl  - The column(s) in OL_Filename that contains the cable control inputs in m [Used with CC_Mode = 2, must be the same size as CC_Group_N]
0                   ! Ind_StructControl - The column(s) in OL_Filename that contains the structural control inputs [Used with StC_Mode = 2, must be the same size as StC_Group_N]
0                   ! Ind_R_Speed       - Index (column, 1-indexed) of power rating via speed offset
0                   ! Ind_R_Torque       - Index (column, 1-indexed) of power rating via torque offset
0                   ! Ind_R_Pitch       - Index (column, 1-indexed) of power rating via pitch offset

!------- Pitch Actuator Model -----------------------------------------------------
3.140000000000       ! PA_CornerFreq     - Pitch actuator bandwidth/cut-off frequency [rad/s]
0.707000000000       ! PA_Damping        - Pitch actuator damping ratio [-, unused if PA_Mode = 1]

!------- Pitch Actuator Faults -----------------------------------------------------
0.00000000 0.00000000 0.00000000                 ! PF_Offsets     - Constant blade pitch offsets for blades 1-3 [rad]

!------- Active Wake Control -----------------------------------------------------
1                   ! AWC_NumModes       - Number of user-defined AWC forcing modes 
1                   ! AWC_n              - Azimuthal mode number(s) (i.e., the number and direction of the lobes of the wake structure)
1                   ! AWC_harmonic       - Harmonic(s) to apply in the AWC Inverse Coleman Transformation (only used when AWC_Mode = 2)
0.0500              ! AWC_freq           - Frequency(s) of forcing mode(s) [Hz]
1.0000              ! AWC_amp            - Pitch amplitude(s) of individual forcing mode(s) [deg]
0.0000              ! AWC_clockangle     - Initial angle(s) of forcing mode(s) [deg]

!------- External Controller Interface -----------------------------------------------------
"unused"            ! DLL_FileName        - Name/location of the dynamic library in the Bladed-DLL format
"unused"            ! DLL_InFile          - Name of input file sent to the DLL (-)
"DISCON"            ! DLL_ProcName        - Name of procedure in DLL to be called (-) 

!------- ZeroMQ Interface ---------------------------------------------------------
"tcp://localhost:5555"            ! ZMQ_CommAddress     - Communication address for ZMQ server, (e.g. "tcp://localhost:5555") 
1.000000            ! ZMQ_UpdatePeriod    - Update period at zmq interface to send measurements and wait for setpoint [sec.]
0                   ! ZMQ_ID       - Integer identifier of turbine

!------- Cable Control ---------------------------------------------------------
1                   ! CC_Group_N        - Number of cable control groups
0                   ! CC_GroupIndex     - First index for cable control group, should correspond to deltaL
20.000000           ! CC_ActTau         - Time constant for line actuator [s]

!------- Structural Controllers ---------------------------------------------------------
1                   ! StC_Group_N       - Number of cable control groups
0                   ! StC_GroupIndex    - First index for structural control group, options specified in ServoDyn summary output
