------- AERODYN v15 for OpenFAST INPUT FILE -----------------------------------------------
NREL 5.0 MW offshore baseline aerodynamic input properties.
======  General Options  ============================================================================
False         Echo               - Echo the input to "<rootname>.AD.ech"?  (flag)
"default"     DTAero             - Time interval for aerodynamic calculations {or "default"} (s)
          1   Wake_Mod            - Type of wake/induction model (switch) {0=none, 1=BEMT, 2=DBEMT, 3=OLAF}  [WakeMod cannot be 2 or 3 when linearizing]
          1   TwrPotent          - Type tower influence on wind based on potential flow around the tower (switch) {0=none, 1=baseline potential flow, 2=potential flow with Bak correction}
          0   TwrShadow          - Calculate tower influence on wind based on downstream tower shadow? (flag)
True          TwrAero            - Calculate tower aerodynamic loads? (flag)
False         CavitCheck         - Perform cavitation check? (flag) [AFAeroMod must be 1 when CavitCheck=true]
False                    Buoyancy     - Include buoyancy effects? (flag)
False                  NacelleDrag - Include Nacelle Drag effects? (flag)
False         CompAA             - Flag to compute AeroAcoustics calculation [only used when WakeMod=1 or 2]
"unused"      AA_InputFile       - Aeroacoustics input file
======  Environmental Conditions  ===================================================================
      1.225   AirDens            - Air density (kg/m^3)
  1.464E-05   KinVisc            - Kinematic air viscosity (m^2/s)
        335   SpdSound           - Speed of sound (m/s)
     103500   Patm               - Atmospheric pressure (Pa) [used only when CavitCheck=True]
       1700   Pvap               - Vapour pressure of fluid (Pa) [used only when CavitCheck=True]
======  Blade-Element/Momentum Theory Options  ====================================================== [unused when Wake_Mod=0 or 3, except for BEM_Mod]
1                      BEM_Mod     - BEM model {1=legacy NoSweepPitchTwist, 2=polar} (switch) [used for all Wake_Mod to determine output coordinate system]
--- Skew correction
1                      Skew_Mod    - Skew model {0=No skew model, -1=Remove non-normal component for linearization, 1=skew model active}
False                  SkewMomCorr - Turn the skew momentum correction on or off [used only when Skew_Mod=1]
default                SkewRedistr_Mod - Type of skewed-wake correction model (switch) {0=no redistribution, 1=Glauert/Pitt/Peters, default=1} [used only when Skew_Mod=1]
"default"              SkewRedistrFactor - Constant used in Pitt/Peters skewed wake model {or "default" is 15/32*pi} (-) [used only when Skew_Mod=1 and SkewRedistr_Mod=1]
--- BEM algorithm 
True          TipLoss            - Use the Prandtl tip-loss model? (flag) [unused when WakeMod=0 or 3]
True          HubLoss            - Use the Prandtl hub-loss model? (flag) [unused when WakeMod=0 or 3]
True          TanInd             - Include tangential induction in BEMT calculations? (flag) [unused when WakeMod=0 or 3]
False         AIDrag             - Include the drag term in the axial-induction calculation? (flag) [unused when WakeMod=0 or 3]
False         TIDrag             - Include the drag term in the tangential-induction calculation? (flag) [unused when WakeMod=0,3 or TanInd=FALSE]
"Default"     IndToler           - Convergence tolerance for BEMT nonlinear solve residual equation {or "default"} (-) [unused when WakeMod=0 or 3]
        100   MaxIter            - Maximum number of iteration steps (-) [unused when WakeMod=0]
--- Shear correction
False                  SectAvg     - Use sector averaging (flag)
1                      SectAvgWeighting - Weighting function for sector average {1=Uniform, default=1} within a sector centered on the blade (switch) [used only when SectAvg=True]
default                SectAvgNPoints - Number of points per sectors (-) {default=5} [used only when SectAvg=True]
default                SectAvgPsiBwd - Backward azimuth relative to blade where the sector starts (<=0) {default=-60} (deg) [used only when SectAvg=True]
default                SectAvgPsiFwd - Forward azimuth relative to blade where the sector ends (>=0) {default=60} (deg) [used only when SectAvg=True]
--- Dynamic wake/inflow
          2   DBEMT_Mod          - Type of dynamic BEMT (DBEMT) model {1=constant tau1, 2=time-dependent tau1} (-) [used only when WakeMod=2]
          4   tau1_const         - Time constant for DBEMT (s) [used only when WakeMod=2 and DBEMT_Mod=1]
======  OLAF -- cOnvecting LAgrangian Filaments (Free Vortex Wake) Theory Options  ================== [used only when Wake_Mod=3]
"unused"      OLAFInputFileName - Input file for OLAF [used only when WakeMod=3]
======  Unsteady Airfoil Aerodynamics Options  ====================================================
True                   AoA34       - Sample the angle of attack (AoA) at the 3/4 chord or the AC point {default=True} [always used]
3                      UA_Mod      - Unsteady Aero Model Switch (switch) {0=Quasi-steady (no UA), 2=B-L Gonzalez, 3=B-L Minnema/Pierce, 4=B-L HGM 4-states, 5=B-L HGM+vortex 5 states, 6=Oye, 7=Boeing-Vertol}
True                   FLookup     - Flag to indicate whether a lookup for f' will be calculated (TRUE) or whether best-fit exponential equations will be used (FALSE); if FALSE S1-S4 must be provided in airfoil input files (flag) [used only when UA_Mod>0]
3               IntegrationMethod  - Switch to indicate which integration method UA uses (1=RK4, 2=AB4, 3=ABM4, 4=BDF2)
0                      UAStartRad  - Starting radius for dynamic stall (fraction of rotor radius [0.0,1.0]) [used only when UA_Mod>0; if line is missing UAStartRad=0]
1                      UAEndRad    - Ending radius for dynamic stall (fraction of rotor radius [0.0,1.0]) [used only when UA_Mod>0; if line is missing UAEndRad=1]
======  Airfoil Information =========================================================================
          1   AFTabMod           - Interpolation method for multiple airfoil tables {1=1D interpolation on AoA (first table only); 2=2D interpolation on AoA and Re; 3=2D interpolation on AoA and UserProp} (-)
          1   InCol_Alfa         - The column in the airfoil tables that contains the angle of attack (-)
          2   InCol_Cl           - The column in the airfoil tables that contains the lift coefficient (-)
          3   InCol_Cd           - The column in the airfoil tables that contains the drag coefficient (-)
          4   InCol_Cm           - The column in the airfoil tables that contains the pitching-moment coefficient; use zero if there is no Cm column (-)
          0   InCol_Cpmin        - The column in the airfoil tables that contains the Cpmin coefficient; use zero if there is no Cpmin column (-)
          8   NumAFfiles         - Number of airfoil files used (-)
"Airfoils/Cylinder1.dat"    AFNames            - Airfoil file names (NumAFfiles lines) (quoted strings)
"Airfoils/Cylinder2.dat"
"Airfoils/DU40_A17.dat"
"Airfoils/DU35_A17.dat"
"Airfoils/DU30_A17.dat"
"Airfoils/DU25_A17.dat"
"Airfoils/DU21_A17.dat"
"Airfoils/NACA64_A17.dat"
======  Rotor/Blade Properties  =====================================================================
True          UseBlCm            - Include aerodynamic pitching moment in calculations?  (flag)
"NRELOffshrBsline5MW_AeroDyn_blade.dat"    ADBlFile(1)        - Name of file containing distributed aerodynamic properties for Blade #1 (-)
"NRELOffshrBsline5MW_AeroDyn_blade.dat"    ADBlFile(2)        - Name of file containing distributed aerodynamic properties for Blade #2 (-) [unused if NumBl < 2]
"NRELOffshrBsline5MW_AeroDyn_blade.dat"    ADBlFile(3)        - Name of file containing distributed aerodynamic properties for Blade #3 (-) [unused if NumBl < 3]
======  Hub Properties ============================================================================== [used only when Buoyancy=True]
0.0   VolHub             - Hub volume (m^3)
0.0   HubCenBx           - Hub center of buoyancy x direction offset (m)
======  Nacelle Properties ========================================================================== [used only when Buoyancy=True or NacelleDrag=True]
0                      VolNac      - Nacelle volume (m^3)
0.0, 0.0, 0.0   NacCenB            - Position of nacelle center of buoyancy from yaw bearing in nacelle coordinates (m)
0, 0, 0      NacArea        - Projected area of the nacelle in X, Y, Z in the nacelle coordinate system (m^2)
0, 0, 0   NacCd          - Drag coefficient for the nacelle areas defined above (-)
0, 0, 0         NacDragAC          - Position of aerodynamic center of nacelle drag in nacelle coordinates (m)
======  Tail Fin Aerodynamics =======================================================================
False         TFinAero           - Calculate tail fin aerodynamics model (flag)
"unused"      TFinFile           - Input file for tail fin aerodynamics [used only when TFinAero=True]
======  Tower Influence and Aerodynamics ============================================================= [used only when TwrPotent/=0, TwrShadow=True, or TwrAero=True]
         12   NumTwrNds         - Number of tower nodes used in the analysis  (-) [used only when TwrPotent/=0, TwrShadow=True, or TwrAero=True]
TwrElev        TwrDiam        TwrCd          TwrTI          TwrCb !TwrTI used only with TwrShadow=2, TwrCb used only with Buoyancy=True
(m)              (m)           (-)            (-)           (-)
0.0000000E+00  6.0000000E+00  1.0000000E+00  1.000000E-01   0.0
8.5261000E+00  5.7870000E+00  1.0000000E+00  1.000000E-01   0.0
1.7053000E+01  5.5740000E+00  1.0000000E+00  1.000000E-01   0.0
2.5579000E+01  5.3610000E+00  1.0000000E+00  1.000000E-01   0.0
3.4105000E+01  5.1480000E+00  1.0000000E+00  1.000000E-01   0.0
4.2633000E+01  4.9350000E+00  1.0000000E+00  1.000000E-01   0.0
5.1158000E+01  4.7220000E+00  1.0000000E+00  1.000000E-01   0.0
5.9685000E+01  4.5090000E+00  1.0000000E+00  1.000000E-01   0.0
6.8211000E+01  4.2960000E+00  1.0000000E+00  1.000000E-01   0.0
7.6738000E+01  4.0830000E+00  1.0000000E+00  1.000000E-01   0.0
8.5268000E+01  3.8700000E+00  1.0000000E+00  1.000000E-01   0.0
8.7600000E+01  3.8700000E+00  1.0000000E+00  1.000000E-01   0.0
======  Outputs  ====================================================================================
True          SumPrint            - Generate a summary file listing input options and interpolated properties to "<rootname>.AD.sum"?  (flag)
          0   NBlOuts             - Number of blade node outputs [0 - 9] (-)
          1,          9,         19    BlOutNd             - Blade nodes whose values will be output  (-)
          0   NTwOuts             - Number of tower node outputs [0 - 9]  (-)
          1,          2,          6    TwOutNd             - Tower nodes whose values will be output  (-)
              OutList             - The next line(s) contains a list of output parameters.  See OutListParameters.xlsx for a listing of available output channels, (-)
"RtFldFxh"
"RtFldFyh"
"RtFldFzh"
"RtFldMxh"
"RtFldMyh"
"RtFldMzh"
"RtVAvgxh"
"RtFldCp"
"RtFldCt"
"RtArea"
"RtSpeed"
"RtTSR"
END of input file (the word "END" must appear in the first 3 columns of this last OutList line)
---------------------------------------------------------------------------------------
