! Controller parameter input file for the BAR_10 wind turbine
!    - File written using ROSCO version 2.9.4 controller tuning logic on 07/01/24

!------- SIMULATION CONTROL ------------------------------------------------------------
1                   ! LoggingLevel		- {0: write no debug files, 1: write standard output .dbg-file, 2: LoggingLevel 1 + ROSCO LocalVars (.dbg2) 3: LoggingLevel 2 + complete avrSWAP-array (.dbg3)}
0                   ! DT_Out    		  - {Time step to output .dbg* files, or 0 to match sampling period of OpenFAST}
1                   ! Ext_Interface		- (0 - use standard bladed interface, 1 - Use the extened DLL interface introduced in OpenFAST 3.5.0.)
0                   ! Echo		        - (0 - no Echo, 1 - Echo input data to <RootName>.echo)

!------- CONTROLLER FLAGS -------------------------------------------------
2                   ! F_LPFType			  - (1: first-order low-pass filter, 2: second-order low-pass filter), [rad/s] (currently filters generator speed and pitch control signals
0                   ! IPC_ControlMode	- Turn Individual Pitch Control (IPC) for fatigue load reductions (pitch contribution) {0: off, 1: 1P reductions, 2: 1P+2P reductions}
2                   ! VS_ControlMode	- Generator torque control mode in above rated conditions (0- no torque control, 1- k*omega^2 with PI transitions, 2- WSE TSR Tracking, 3- Power-based TSR Tracking)}
0                   ! VS_ConstPower  	- Do constant power torque control, where above rated torque varies, 0 for constant torque}
1                   ! PC_ControlMode  - Blade pitch control mode {0: No pitch, fix to fine pitch, 1: active PI blade pitch control}
0                   ! Y_ControlMode   - Yaw control mode {0: no yaw control, 1: yaw rate control, 2: yaw-by-IPC}
1                   ! SS_Mode         - Setpoint Smoother mode {0: no setpoint smoothing, 1: introduce setpoint smoothing}
0                   ! PRC_Mode        - Power reference tracking mode{0: use standard rotor speed set points, 1: use PRC rotor speed setpoints}
2                   ! WE_Mode         - Wind speed estimator mode {0: One-second low pass filtered hub height wind speed, 1: Immersion and Invariance Estimator, 2: Extended Kalman Filter}
1                   ! PS_Mode         - Pitch saturation mode {0: no pitch saturation, 1: implement pitch saturation}
0                   ! SD_Mode         - Shutdown mode {0: no shutdown procedure, 1: pitch to max pitch at shutdown}
0                   ! Fl_Mode         - Floating specific feedback mode {0: no nacelle velocity feedback, 1: feed back translational velocity, 2: feed back rotational veloicty}
0                   ! TD_Mode         - Tower damper mode (0- no tower damper, 1- feed back translational nacelle accelleration to pitch angle
0                   ! TRA_Mode        - Tower resonance avoidance mode (0- no tower resonsnace avoidance, 1- use torque control setpoints to avoid a specific frequency
2                   ! Flp_Mode        - Flap control mode {0: no flap control, 1: steady state flap angle, 2: Proportional flap control, 2: Cyclic (1P) flap control}
0                   ! OL_Mode         - Open loop control mode {0: no open loop control, 1: open loop control vs. time, 2: rotor position control}
0                   ! PA_Mode         - Pitch actuator mode {0 - not used, 1 - first order filter, 2 - second order filter}
0                   ! PF_Mode         - Pitch fault mode {0 - not used, 1 - constant offset on one or more blades}
0                   ! AWC_Mode        - Active wake control {0 - not used, 1 - complex number method, 2 - Coleman transform method}
0                   ! Ext_Mode        - External control mode {0 - not used, 1 - call external dynamic library}
0                   ! ZMQ_Mode        - Fuse ZeroMQ interface {0: unused, 1: Yaw Control}
0                   ! CC_Mode         - Cable control mode [0- unused, 1- User defined, 2- Open loop control]
0                   ! StC_Mode        - Structural control mode [0- unused, 1- User defined, 2- Open loop control]

!------- FILTERS ----------------------------------------------------------
0.81771             ! F_LPFCornerFreq	  - Corner frequency (-3dB point) in the low-pass filters, [rad/s]
0.70000             ! F_LPFDamping		  - Damping coefficient {used only when F_FilterType = 2} [-]
0                   ! F_NumNotchFilts   - Number of notch filters placed on sensors
0.0000              ! F_NotchFreqs      - Natural frequency of the notch filters. Array with length F_NumNotchFilts
0.0000              ! F_NotchBetaNum    - Damping value of numerator (determines the width of notch). Array with length F_NumNotchFilts, [-]
0.0000              ! F_NotchBetaDen    - Damping value of denominator (determines the depth of notch). Array with length F_NumNotchFilts, [-]
0                   ! F_GenSpdNotch_N   - Number of notch filters on generator speed
0                   ! F_GenSpdNotch_Ind - Indices of notch filters on generator speed
0                   ! F_TwrTopNotch_N   - Number of notch filters on tower top acceleration signal
0                   ! F_TwrTopNotch_Ind - Indices of notch filters on tower top acceleration signal
0.62830             ! F_SSCornerFreq    - Corner frequency (-3dB point) in the first order low pass filter for the setpoint smoother, [rad/s].
0.20944             ! F_WECornerFreq    - Corner frequency (-3dB point) in the first order low pass filter for the wind speed estimate [rad/s].
0.17952             ! F_YawErr          - Low pass filter corner frequency for yaw controller [rad/s].
0.000000  1.000000  ! F_FlCornerFreq    - Natural frequency and damping in the second order low pass filter of the tower-top fore-aft motion for floating feedback control [rad/s, -].
0.01042             ! F_FlHighPassFreq  - Natural frequency of first-order high-pass filter for nacelle fore-aft motion [rad/s].
7.8480 1.0000      ! F_FlpCornerFreq   - Corner frequency and damping in the second order low pass filter of the blade root bending moment for flap control

!------- BLADE PITCH CONTROL ----------------------------------------------
30                  ! PC_GS_n			- Amount of gain-scheduling table entries
0.057899  0.086034  0.108220  0.127602  0.145231  0.161628  0.177110  0.191882  0.205973  0.219605  0.232854  0.245775  0.258317  0.270576  0.282622  0.294421  0.305965  0.317359  0.328547  0.339534  0.350412  0.361066  0.371600  0.382012  0.392231  0.402383  0.412328  0.422200  0.431927  0.441532                ! PC_GS_angles	    - Gain-schedule table: pitch angles [rad].
-0.017426  -0.014498  -0.012232  -0.010428  -0.008956  -0.007733  -0.006701  -0.005818  -0.005054  -0.004387  -0.003799  -0.003276  -0.002810  -0.002390  -0.002011  -0.001666  -0.001352  -0.001064  -0.000799  -0.000554  -0.000328  -0.000118  0.000077  0.000259  0.000430  0.000589  0.000739  0.000881  0.001014  0.001139                ! PC_GS_KP		- Gain-schedule table: pitch controller kp gains [s].
-0.000714  -0.000623  -0.000552  -0.000496  -0.000450  -0.000412  -0.000380  -0.000353  -0.000329  -0.000308  -0.000290  -0.000274  -0.000259  -0.000246  -0.000234  -0.000223  -0.000214  -0.000205  -0.000196  -0.000189  -0.000182  -0.000175  -0.000169  -0.000164  -0.000158  -0.000153  -0.000149  -0.000144  -0.000140  -0.000136                ! PC_GS_KI		- Gain-schedule table: pitch controller ki gains [-].
0.000000  0.000000  0.000000  0.000000  0.000000  0.000000  0.000000  0.000000  0.000000  0.000000  0.000000  0.000000  0.000000  0.000000  0.000000  0.000000  0.000000  0.000000  0.000000  0.000000  0.000000  0.000000  0.000000  0.000000  0.000000  0.000000  0.000000  0.000000  0.000000  0.000000                ! PC_GS_KD			- Gain-schedule table: pitch controller kd gains
0.000000  0.000000  0.000000  0.000000  0.000000  0.000000  0.000000  0.000000  0.000000  0.000000  0.000000  0.000000  0.000000  0.000000  0.000000  0.000000  0.000000  0.000000  0.000000  0.000000  0.000000  0.000000  0.000000  0.000000  0.000000  0.000000  0.000000  0.000000  0.000000  0.000000                ! PC_GS_TF			- Gain-schedule table: pitch controller tf gains (derivative filter)
1.570000000000      ! PC_MaxPit			- Maximum physical pitch limit, [rad].
-0.01505000000      ! PC_MinPit			- Minimum physical pitch limit, [rad].
2.000000000000      ! PC_MaxRat			- Maximum pitch rate (in absolute value) in pitch controller, [rad/s].
-2.00000000000      ! PC_MinRat			- Minimum pitch rate (in absolute value) in pitch controller, [rad/s].
79.85313000000      ! PC_RefSpd			- Desired (reference) HSS speed for pitch controller, [rad/s].
-0.01505000000      ! PC_FinePit		- Record 5: Below-rated pitch angle set-point, [rad]
0.017450000000      ! PC_Switch			- Angle above lowest minimum pitch angle for switch, [rad]

!------- INDIVIDUAL PITCH CONTROL -----------------------------------------
6.618848  8.273560  ! IPC_Vramp		- Start and end wind speeds for cut-in ramp function. First entry: IPC inactive, second entry: IPC fully active. [m/s]
2                   ! IPC_SatMode		- IPC Saturation method (0 - no saturation (except by PC_MinPit), 1 - saturate by PS_BldPitchMin, 2 - saturate sotfly (full IPC cycle) by PC_MinPit, 3 - saturate softly by PS_BldPitchMin)
0.3                 ! IPC_IntSat		- Integrator saturation (maximum signal amplitude contribution to pitch from IPC), [rad]
2.050e-08 0.000e+00 ! IPC_KP			- Proportional gain for the individual pitch controller: first parameter for 1P reductions, second for 2P reductions, [-]
1.450e-09 0.000e+00 ! IPC_KI			- Integral gain for the individual pitch controller: first parameter for 1P reductions, second for 2P reductions, [-]
0.000000  0.000000  ! IPC_aziOffset		- Phase offset added to the azimuth angle for the individual pitch controller, [rad]. 
0.0                 ! IPC_CornerFreqAct - Corner frequency of the first-order actuators model, to induce a phase lag in the IPC signal {0: Disable}, [rad/s]

!------- VS TORQUE CONTROL ------------------------------------------------
98.00000000000      ! VS_GenEff			- Generator efficiency mechanical power -> electrical power, [should match the efficiency defined in the generator properties!], [%]
63892.81326000      ! VS_ArSatTq		- Above rated generator torque PI control saturation, [Nm]
4500000.000000      ! VS_MaxRat			- Maximum torque rate (in absolute value) in torque controller, [Nm/s].
70282.09458000      ! VS_MaxTq			- Maximum generator torque in Region 3 (HSS side), [Nm].
0.000000000000      ! VS_MinTq			- Minimum generator torque (HSS side), [Nm].
27.49717000000      ! VS_MinOMSpd		- Minimum generator speed [rad/s]
11.20801000000      ! VS_Rgn2K		- Generator torque constant in Region 2 (HSS side). Only used in VS_ControlMode = 1,3
5000000.000000      ! VS_RtPwr			- Wind turbine rated power [W]
63892.81326000      ! VS_RtTq			- Rated torque, [Nm].
75.83317000000      ! VS_RefSpd			- Rated generator speed [rad/s]
1                   ! VS_n				- Number of generator PI torque controller gains
-2454.67747000      ! VS_KP				- Proportional gain for generator PI torque controller [-]. (Only used in the transitional 2.5 region if VS_ControlMode =/ 2)
-332.357190000      ! VS_KI				- Integral gain for generator PI torque controller [s]. (Only used in the transitional 2.5 region if VS_ControlMode =/ 2)
9.76                ! VS_TSRopt		    - Power-maximizing region 2 tip-speed-ratio. Only used in VS_ControlMode = 2.
0.314000000000      ! VS_PwrFiltF		- Low pass filter on power used to determine generator speed set point.  Only used in VS_ControlMode = 3.

!------- SETPOINT SMOOTHER ---------------------------------------------
1.00000             ! SS_VSGain         - Variable speed torque controller setpoint smoother gain, [-].
0.00100             ! SS_PCGain         - Collective pitch controller setpoint smoother gain, [-].

!------- POWER REFERENCE TRACKING --------------------------------------
2                   ! PRC_n			    -  Number of elements in PRC_WindSpeeds and PRC_GenSpeeds array
0.07854             ! PRC_LPF_Freq   - Frequency of the low pass filter on the wind speed estimate used to set PRC_GenSpeeds [rad/s]
3.0000 25.0000      ! PRC_WindSpeeds   - Array of wind speeds used in rotor speed vs. wind speed lookup table [m/s]
0.7917 0.7917       ! PRC_GenSpeeds   - Array of generator speeds corresponding to PRC_WindSpeeds [rad/s]

!------- WIND SPEED ESTIMATOR ---------------------------------------------
102.996             ! WE_BladeRadius	- Blade length (distance from hub center to blade tip), [m]
1                   ! WE_CP_n			- Amount of parameters in the Cp array
0.0                 ! WE_CP - Parameters that define the parameterized CP(lambda) function
0.0          		  ! WE_Gamma			- Adaption gain of the wind speed estimator algorithm [m/rad]
96.8                ! WE_GearboxRatio	- Gearbox ratio [>=1],  [-]
311169343.31448     ! WE_Jtot			- Total drivetrain inertia, including blades, hub and casted generator inertia to LSS, [kg m^2]
1.225               ! WE_RhoAir			- Air density, [kg m^-3]
"Cp_Ct_Cq.BAR_10.txt"      ! PerfFileName      - File containing rotor performance tables (Cp,Ct,Cq) (absolute path or relative to this file)
36      26          ! PerfTableSize     - Size of rotor performance tables, first number refers to number of blade pitch angles, second number referse to number of tip-speed ratios
60                  ! WE_FOPoles_N      - Number of first-order system poles used in EKF
3.0000 3.1818 3.3637 3.5455 3.7274 3.9092 4.0911 4.2729 4.4548 4.6366 4.8185 5.0003 5.1822 5.3640 5.5459 5.7277 5.9096 6.0914 6.2732 6.4551 6.6369 6.8188 7.0006 7.1825 7.3643 7.5462 7.7280 7.9099 8.0917 8.2736 8.8311 9.3887 9.9462 10.5038 11.0613 11.6188 12.1764 12.7339 13.2915 13.8490 14.4066 14.9641 15.5217 16.0792 16.6368 17.1943 17.7519 18.3094 18.8670 19.4245 19.9821 20.5396 21.0972 21.6547 22.2123 22.7698 23.3274 23.8849 24.4425 25.0000               ! WE_FOPoles_v      - Wind speeds corresponding to first-order system poles [m/s]
-0.00969265 -0.01028018 -0.01086771 -0.01145523 -0.01204276 -0.01263029 -0.01321781 -0.01380534 -0.01439287 -0.01498039 -0.01556792 -0.01615544 -0.01674297 -0.01733050 -0.01791802 -0.01850555 -0.01909308 -0.01968060 -0.02026813 -0.02085566 -0.02144318 -0.02203071 -0.02261823 -0.02320576 -0.02379329 -0.02438081 -0.02496834 -0.02555587 -0.02614339 -0.02379613 -0.02047291 -0.02537932 -0.03151563 -0.03840840 -0.04587537 -0.05382394 -0.06221064 -0.07100937 -0.08011138 -0.08959645 -0.09946249 -0.10970584 -0.12021535 -0.13105665 -0.14226361 -0.15376640 -0.16552312 -0.17764204 -0.19004300 -0.20272586 -0.21577830 -0.22897091 -0.24242644 -0.25613739 -0.27000365 -0.28425482 -0.29866687 -0.31351260 -0.32866968 -0.34414305               ! WE_FOPoles        - First order system poles [1/s]

!------- YAW CONTROL ------------------------------------------------------
0.00000             ! Y_uSwitch		- Wind speed to switch between Y_ErrThresh. If zero, only the second value of Y_ErrThresh is used [m/s]
4.000000  8.000000  ! Y_ErrThresh    - Yaw error threshold/deadbands. Turbine begins to yaw when it passes this. If Y_uSwitch is zero, only the second value is used. [deg].
0.00870             ! Y_Rate			- Yaw rate [rad/s]
0.00000             ! Y_MErrSet		- Integrator saturation (maximum signal amplitude contribution to pitch from yaw-by-IPC), [rad]
0.00000             ! Y_IPC_IntSat		- Integrator saturation (maximum signal amplitude contribution to pitch from yaw-by-IPC), [rad]
0.00000             ! Y_IPC_KP			- Yaw-by-IPC proportional controller gain Kp
0.00000             ! Y_IPC_KI			- Yaw-by-IPC integral controller gain Ki

!------- TOWER CONTROL ------------------------------------------------------
0.00000             ! TRA_ExclSpeed	    - Rotor speed for exclusion [LSS, rad/s]
0.00000             ! TRA_ExclBand	    - Size of the rotor frequency exclusion band [LSS, rad/s]. Torque controller reference will be TRA_ExclSpeed +/- TRA_ExlBand/2
0.00000e+00         ! TRA_RateLimit	    - Rate limit of change in rotor speed reference [LSS, rad/s].  Suggested to be VS_RefSpd/400.
0.00000             ! FA_KI				- Integral gain for the fore-aft tower damper controller,  [rad*s/m]
0.00000             ! FA_HPFCornerFreq	- Corner frequency (-3dB point) in the high-pass filter on the fore-aft acceleration signal [rad/s]
0.00000             ! FA_IntSat			- Integrator saturation (maximum signal amplitude contribution to pitch from FA damper), [rad]

!------- MINIMUM PITCH SATURATION -------------------------------------------
60                  ! PS_BldPitchMin_N  - Number of values in minimum blade pitch lookup table (should equal number of values in PS_WindSpeeds and PS_BldPitchMin)
3.000 3.182 3.364 3.546 3.727 3.909 4.091 4.273 4.455 4.637 4.818 5.000 5.182 5.364 5.546 5.728 5.910 6.091 6.273 6.455 6.637 6.819 7.001 7.182 7.364 7.546 7.728 7.910 8.092 8.274 8.831 9.389 9.946 10.504 11.061 11.619 12.176 12.734 13.291 13.849 14.407 14.964 15.522 16.079 16.637 17.194 17.752 18.309 18.867 19.425 19.982 20.540 21.097 21.655 22.212 22.770 23.327 23.885 24.442 25.000               ! PS_WindSpeeds     - Wind speeds corresponding to minimum blade pitch angles [m/s]
-0.015     -0.015     -0.015     -0.015     -0.015     -0.015     -0.015     -0.015     -0.015     -0.015     -0.015     -0.015     -0.015     -0.015     -0.015     -0.015     -0.015     -0.015     -0.015     -0.015     -0.015     -0.015     -0.015     -0.015     -0.012     0.000      0.011      0.020      0.029      0.041      0.056      0.069      0.082      0.095      0.108      0.120      0.132      0.143      0.155      0.166      0.178      0.189      0.200      0.211      0.222      0.232      0.243      0.254      0.264      0.274      0.285      0.295      0.305      0.315      0.325      0.335      0.344      0.354      0.364      0.373                    ! PS_BldPitchMin    - Minimum blade pitch angles [rad]

!------- SHUTDOWN -----------------------------------------------------------
0.698100000000      ! SD_MaxPit         - Maximum blade pitch angle to initiate shutdown, [rad]
0.418880000000      ! SD_CornerFreq     - Cutoff Frequency for first order low-pass filter for blade pitch angle, [rad/s]

!------- Floating -----------------------------------------------------------
1                   ! Fl_n              - Number of Fl_Kp gains in gain scheduling, optional with default of 1
0.0000              ! Fl_Kp             - Nacelle velocity proportional feedback gain [s]
0.0000              ! Fl_U              - Wind speeds for scheduling Fl_Kp, optional if Fl_Kp is single value [m/s]

!------- FLAP ACTUATION -----------------------------------------------------
0.000000000000      ! Flp_Angle         - Initial or steady state flap angle [rad]
1.46445122e-08      ! Flp_Kp            - Blade root bending moment proportional gain for flap control [s]
1.46445122e-09      ! Flp_Ki            - Flap displacement integral gain for flap control [-]
0.174500000000      ! Flp_MaxPit        - Maximum (and minimum) flap pitch angle [rad]

!------- Open Loop Control -----------------------------------------------------
"unused"            ! OL_Filename       - Input file with open loop timeseries (absolute path or relative to this file)
0                   ! Ind_Breakpoint    - The column in OL_Filename that contains the breakpoint (time if OL_Mode = 1)
  0   0   0         ! Ind_BldPitch      - The columns in OL_Filename that contains the blade pitch (1,2,3) inputs in rad [array]
0                   ! Ind_GenTq         - The column in OL_Filename that contains the generator torque in Nm
0                   ! Ind_YawRate       - The column in OL_Filename that contains the yaw rate in rad/s
0                   ! Ind_Azimuth       - The column in OL_Filename that contains the desired azimuth position in rad (used if OL_Mode = 2)
0.0000 0.0000 0.0000 0.0000        ! RP_Gains - PID gains and Tf of derivative for rotor position control (used if OL_Mode = 2)
0                   ! Ind_CableControl  - The column(s) in OL_Filename that contains the cable control inputs in m [Used with CC_Mode = 2, must be the same size as CC_Group_N]
0                   ! Ind_StructControl - The column(s) in OL_Filename that contains the structural control inputs [Used with StC_Mode = 2, must be the same size as StC_Group_N]

!------- Pitch Actuator Model -----------------------------------------------------
3.140000000000       ! PA_CornerFreq     - Pitch actuator bandwidth/cut-off frequency [rad/s]
0.707000000000       ! PA_Damping        - Pitch actuator damping ratio [-, unused if PA_Mode = 1]

!------- Pitch Actuator Faults -----------------------------------------------------
0.00000000 0.00000000 0.00000000                 ! PF_Offsets     - Constant blade pitch offsets for blades 1-3 [rad]

!------- Active Wake Control -----------------------------------------------------
1                   ! AWC_NumModes       - Number of user-defined AWC forcing modes 
1                   ! AWC_n              - Azimuthal mode number(s) (i.e., the number and direction of the lobes of the wake structure)
1                   ! AWC_harmonic       - Harmonic(s) to apply in the AWC Inverse Coleman Transformation (only used when AWC_Mode = 2)
0.0500              ! AWC_freq           - Frequency(s) of forcing mode(s) [Hz]
1.0000              ! AWC_amp            - Pitch amplitude(s) of individual forcing mode(s) [deg]
0.0000              ! AWC_clockangle     - Initial angle(s) of forcing mode(s) [deg]

!------- External Controller Interface -----------------------------------------------------
"unused"            ! DLL_FileName        - Name/location of the dynamic library in the Bladed-DLL format
"unused"            ! DLL_InFile          - Name of input file sent to the DLL (-)
"DISCON"            ! DLL_ProcName        - Name of procedure in DLL to be called (-) 

!------- ZeroMQ Interface ---------------------------------------------------------
"tcp://localhost:5555"            ! ZMQ_CommAddress     - Communication address for ZMQ server, (e.g. "tcp://localhost:5555") 
1.000000            ! ZMQ_UpdatePeriod    - Update period at zmq interface to send measurements and wait for setpoint [sec.]
0                   ! ZMQ_ID       - Integer identifier of turbine

!------- Cable Control ---------------------------------------------------------
1                   ! CC_Group_N        - Number of cable control groups
0                   ! CC_GroupIndex     - First index for cable control group, should correspond to deltaL
20.000000           ! CC_ActTau         - Time constant for line actuator [s]

!------- Structural Controllers ---------------------------------------------------------
1                   ! StC_Group_N       - Number of cable control groups
0                   ! StC_GroupIndex    - First index for structural control group, options specified in ServoDyn summary output
