! Controller parameter input file for the IEA-15-240-RWT-Monopile wind turbine
!    - File written using ROSCO version 2.10.0 controller tuning logic on 09/08/25

!------- SIMULATION CONTROL ------------------------------------------------------------
1                   ! LoggingLevel		- 0: write no debug files, 1: write standard output .dbg-file, 2: LoggingLevel 1 + ROSCO LocalVars (.dbg2) 3: LoggingLevel 2 + complete avrSWAP-array (.dbg3)
0                   ! DT_Out    		  - Time step to output .dbg* files, or 0 to match sampling period of OpenFAST
1                   ! Ext_Interface		- (0 - use standard bladed interface, 1 - Use the extened DLL interface introduced in OpenFAST 3.5.0.)
0                   ! Echo		        - (0 - no Echo, 1 - Echo input data to <RootName>.echo)

!------- CONTROLLER FLAGS -------------------------------------------------
2                   ! F_LPFType       - 1: first-order low-pass filter, 2: second-order low-pass filter, [rad/s] (currently filters generator speed and pitch control signals
0                   ! IPC_ControlMode - Turn Individual Pitch Control (IPC) for fatigue load reductions (pitch contribution) (0: off, 1: 1P reductions, 2: 1P+2P reductions)
2                   ! VS_ControlMode  - Generator torque control mode in above rated conditions (0- no torque control, 1- k*omega^2 with PI transitions, 2- WSE TSR Tracking, 3- Power-based TSR Tracking, 4- Torque-based TSR Tracking)
0                   ! VS_ConstPower   - Do constant power torque control, where above rated torque varies, 0 for constant torque)
0                   ! VS_FBP          - Fixed blade pitch configuration mode (0- variable pitch (disabled), 1- constant power overspeed, 2- WSE-lookup reference tracking, 3- torque-lookup reference tracking)
1                   ! PC_ControlMode  - Blade pitch control mode (0: No pitch, fix to fine pitch, 1: active PI blade pitch control)
0                   ! Y_ControlMode   - Yaw control mode (0: no yaw control, 1: yaw rate control, 2: yaw-by-IPC)
1                   ! SS_Mode         - Setpoint Smoother mode (0: no setpoint smoothing, 1: introduce setpoint smoothing)
0                   ! PRC_Mode        - Power reference tracking mode (0: power control disabled, 1: lookup table from wind speed to generator speed setpoints, 2: change speed, torque, pitch to control power)
2                   ! WE_Mode         - Wind speed estimator mode (0: One-second low pass filtered hub height wind speed, 1: Immersion and Invariance Estimator, 2: Extended Kalman Filter)
1                   ! PS_Mode         - Pitch saturation mode (0: no pitch saturation, 1: implement pitch saturation)
0                   ! SU_Mode         - Startup mode (0: no startup procedure, 1: startup enabled)
0                   ! SD_Mode         - Shutdown mode (0: no shutdown procedure, 1: shutdown enabled)
0                   ! Fl_Mode         - Floating specific feedback mode (0: no nacelle velocity feedback, 1: feed back translational velocity, 2: feed back rotational velocity)
0                   ! TD_Mode         - Tower damper mode (0- no tower damper, 1- feed back translational nacelle accelleration to pitch angle
0                   ! TRA_Mode        - Tower resonance avoidance mode (0- no tower resonsnace avoidance, 1- use torque control setpoints to avoid a specific frequency
0                   ! Flp_Mode        - Flap control mode (0: no flap control, 1: steady state flap angle, 2: Proportional flap control, 2: Cyclic (1P) flap control)
0                   ! OL_Mode         - Open loop control mode (0: no open loop control, 1: open loop control vs. time, 2: rotor position control)
0                   ! PA_Mode         - Pitch actuator mode (0 - not used, 1 - first order filter, 2 - second order filter)
0                   ! PF_Mode         - Pitch fault mode (0 - not used, 1 - constant offset on one or more blades)
0                   ! AWC_Mode        - Active wake control (0 - not used, 1 - complex number method, 2 - Coleman transform method)
0                   ! Ext_Mode        - External control mode (0 - not used, 1 - call external dynamic library)
0                   ! ZMQ_Mode        - Fuse ZeroMQ interface (0: unused, 1: Yaw Control)
0                   ! CC_Mode         - Cable control mode [0- unused, 1- User defined, 2- Open loop control]
0                   ! StC_Mode        - Structural control mode [0- unused, 1- User defined, 2- Open loop control]

!------- FILTERS ----------------------------------------------------------
1.00810             ! F_LPFCornerFreq	  - Corner frequency (-3dB point) in the low-pass filters, [rad/s]
0.70000             ! F_LPFDamping		  - Damping coefficient (used only when F_FilterType = 2) [-]
0                   ! F_NumNotchFilts   - Number of notch filters placed on sensors
0.0000              ! F_NotchFreqs      - Natural frequency of the notch filters. Array with length F_NumNotchFilts
0.0000              ! F_NotchBetaNum    - Damping value of numerator (determines the width of notch). Array with length F_NumNotchFilts, [-]
0.0000              ! F_NotchBetaDen    - Damping value of denominator (determines the depth of notch). Array with length F_NumNotchFilts, [-]
0                   ! F_GenSpdNotch_N   - Number of notch filters on generator speed
0                   ! F_GenSpdNotch_Ind - Indices of notch filters on generator speed
0                   ! F_TwrTopNotch_N   - Number of notch filters on tower top acceleration signal
0                   ! F_TwrTopNotch_Ind - Indices of notch filters on tower top acceleration signal
0.62830             ! F_SSCornerFreq    - Corner frequency (-3dB point) in the first order low pass filter for the setpoint smoother, [rad/s].
0.20944             ! F_WECornerFreq    - Corner frequency (-3dB point) in the first order low pass filter for the wind speed estimate [rad/s].
0.17952             ! F_YawErr          - Low pass filter corner frequency for yaw controller [rad/s].
0.0000   1.0000     ! F_FlCornerFreq    - Natural frequency and damping in the second order low pass filter of the tower-top fore-aft motion for floating feedback control [rad/s, -].
0.01042             ! F_FlHighPassFreq  - Natural frequency of first-order high-pass filter for nacelle fore-aft motion [rad/s].
10.4616 1.0000      ! F_FlpCornerFreq   - Corner frequency and damping in the second order low pass filter of the blade root bending moment for flap control
0.20944             ! F_VSRefSpdCornerFreq		- Corner frequency (-3dB point) in the first order low pass filter of the generator speed reference used for TSR tracking torque control [rad/s].

!------- BLADE PITCH CONTROL ----------------------------------------------
30                  ! PC_GS_n			- Amount of gain-scheduling table entries
0.064        0.091        0.111        0.129        0.145        0.160        0.174        0.187        0.199        0.211        0.222        0.233        0.244        0.254        0.264        0.274        0.284        0.293        0.303        0.312        0.321        0.330        0.338        0.347        0.355        0.364        0.372        0.380        0.388        0.396                      ! PC_GS_angles	    - Gain-schedule table: pitch angles [rad].
-1.157e+00   -9.977e-01   -8.670e-01   -7.575e-01   -6.646e-01   -5.848e-01   -5.153e-01   -4.544e-01   -4.006e-01   -3.527e-01   -3.097e-01   -2.710e-01   -2.359e-01   -2.040e-01   -1.748e-01   -1.480e-01   -1.234e-01   -1.006e-01   -7.948e-02   -5.986e-02   -4.159e-02   -2.452e-02   -8.545e-03   6.441e-03    2.053e-02    3.379e-02    4.630e-02    5.812e-02    6.931e-02    7.991e-02                  ! PC_GS_KP		- Gain-schedule table: pitch controller kp gains [s].
-1.207e-01   -1.090e-01   -9.930e-02   -9.121e-02   -8.433e-02   -7.842e-02   -7.328e-02   -6.878e-02   -6.479e-02   -6.125e-02   -5.807e-02   -5.520e-02   -5.261e-02   -5.024e-02   -4.808e-02   -4.610e-02   -4.428e-02   -4.259e-02   -4.103e-02   -3.958e-02   -3.823e-02   -3.696e-02   -3.578e-02   -3.467e-02   -3.363e-02   -3.265e-02   -3.172e-02   -3.085e-02   -3.002e-02   -2.924e-02                 ! PC_GS_KI		- Gain-schedule table: pitch controller ki gains [-].
0.000e+00    0.000e+00    0.000e+00    0.000e+00    0.000e+00    0.000e+00    0.000e+00    0.000e+00    0.000e+00    0.000e+00    0.000e+00    0.000e+00    0.000e+00    0.000e+00    0.000e+00    0.000e+00    0.000e+00    0.000e+00    0.000e+00    0.000e+00    0.000e+00    0.000e+00    0.000e+00    0.000e+00    0.000e+00    0.000e+00    0.000e+00    0.000e+00    0.000e+00    0.000e+00                  ! PC_GS_KD			- Gain-schedule table: pitch controller kd gains
0.000e+00    0.000e+00    0.000e+00    0.000e+00    0.000e+00    0.000e+00    0.000e+00    0.000e+00    0.000e+00    0.000e+00    0.000e+00    0.000e+00    0.000e+00    0.000e+00    0.000e+00    0.000e+00    0.000e+00    0.000e+00    0.000e+00    0.000e+00    0.000e+00    0.000e+00    0.000e+00    0.000e+00    0.000e+00    0.000e+00    0.000e+00    0.000e+00    0.000e+00    0.000e+00                  ! PC_GS_TF			- Gain-schedule table: pitch controller tf gains (derivative filter)
1.570000000000      ! PC_MaxPit			- Maximum physical pitch limit, [rad].
0.000000000000      ! PC_MinPit			- Minimum physical pitch limit, [rad].
0.034900000000      ! PC_MaxRat			- Maximum pitch rate (in absolute value) in pitch controller, [rad/s].
-0.03490000000      ! PC_MinRat			- Minimum pitch rate (in absolute value) in pitch controller, [rad/s].
0.791680000000      ! PC_RefSpd			- Desired (reference) HSS speed for pitch controller, [rad/s].
0.000000000000      ! PC_FinePit		- Record 5: Below-rated pitch angle set-point, [rad]
0.017450000000      ! PC_Switch			- Angle above lowest minimum pitch angle for switch, [rad]

!------- INDIVIDUAL PITCH CONTROL -----------------------------------------
8.472        10.590       ! IPC_Vramp		- Start and end wind speeds for cut-in ramp function. First entry: IPC inactive, second entry: IPC fully active. [m/s]
2                   ! IPC_SatMode		- IPC Saturation method (0 - no saturation (except by PC_MinPit), 1 - saturate by PS_BldPitchMin, 2 - saturate sotfly (full IPC cycle) by PC_MinPit, 3 - saturate softly by PS_BldPitchMin)
0.3                 ! IPC_IntSat		- Integrator saturation (maximum signal amplitude contribution to pitch from IPC), [rad]
0.000e+00    0.000e+00    ! IPC_KP			- Proportional gain for the individual pitch controller: first parameter for 1P reductions, second for 2P reductions, [-]
0.000e+00    0.000e+00    ! IPC_KI			- Integral gain for the individual pitch controller: first parameter for 1P reductions, second for 2P reductions, [-]
0.000        0.000        ! IPC_aziOffset		- Phase offset added to the azimuth angle for the individual pitch controller, [rad]. 
0.0                 ! IPC_CornerFreqAct - Corner frequency of the first-order actuators model, to induce a phase lag in the IPC signal (0: Disable), [rad/s]

!------- VS TORQUE CONTROL ------------------------------------------------
95.75600            ! VS_GenEff			- Generator efficiency mechanical power -> electrical power, [should match the efficiency defined in the generator properties!], [%]
1.97868e+07         ! VS_ArSatTq		- Above rated generator torque PI control saturation, [Nm]
4.50000e+06         ! VS_MaxRat			- Maximum torque rate (in absolute value) in torque controller, [Nm/s].
2.17654e+07         ! VS_MaxTq			- Maximum generator torque in Region 3 (HSS side), [Nm].
0.00000e+00         ! VS_MinTq			- Minimum generator torque (HSS side), [Nm].
0.52360             ! VS_MinOMSpd		- Minimum generator speed [rad/s]
3.81784e+07         ! VS_Rgn2K		- Generator torque constant in Region 2 (HSS side). Only used in VS_ControlMode = 1,3,4
1.50000e+07         ! VS_RtPwr			- Wind turbine rated power [W]
1.97868e+07         ! VS_RtTq			- Rated torque, [Nm].
0.78788             ! VS_RefSpd			- Rated generator speed [rad/s]
1                   ! VS_n				- Number of generator PI torque controller gains
-3.61179e+07        ! VS_KP				- Proportional gain for generator PI torque controller [-]. (Only used in the transitional 2.5 region if VS_ControlMode =/ 2)
-4.49937e+06        ! VS_KI				- Integral gain for generator PI torque controller [s]. (Only used in the transitional 2.5 region if VS_ControlMode =/ 2)
9.00000             ! VS_TSRopt		    - Power-maximizing region 2 tip-speed-ratio. Only used in VS_ControlMode = 2.

!------- FIXED PITCH REGION 3 TORQUE CONTROL ------------------------------------------------
60                  ! VS_FBP_n          - Number of gain-scheduling table entries
3.0000       3.2617       3.5234       3.7852       4.0469       4.3086       4.5703       4.8321       5.0938       5.3555       5.6172       5.8790       6.1407       6.4024       6.6641       6.9259       7.1876       7.4493       7.7110       7.9728       8.2345       8.4962       8.7579       9.0197       9.2814       9.5431       9.8048       10.0666      10.3283      10.5900      11.0703      11.5507      12.0310      12.5113      12.9917      13.4720      13.9523      14.4327      14.9130      15.3933      15.8737      16.3540      16.8343      17.3147      17.7950      18.2753      18.7557      19.2360      19.7163      20.1967      20.6770      21.1573      21.6377      22.1180      22.5983      23.0787      23.5590      24.0393      24.5197      25.0000                    ! VS_FBP_U          - Operating schedule table: Wind speeds [m/s].
5.2360e-01   5.2360e-01   5.2360e-01   5.2360e-01   5.2360e-01   5.2360e-01   5.2360e-01   5.2360e-01   5.2360e-01   5.2360e-01   5.2360e-01   5.2360e-01   5.2360e-01   5.2360e-01   5.2360e-01   5.2360e-01   5.3475e-01   5.5422e-01   5.7369e-01   5.9316e-01   6.1263e-01   6.3211e-01   6.5158e-01   6.7105e-01   6.9052e-01   7.0999e-01   7.2947e-01   7.4894e-01   7.6841e-01   7.9168e-01   7.9168e-01   7.9168e-01   7.9168e-01   7.9168e-01   7.9168e-01   7.9168e-01   7.9168e-01   7.9168e-01   7.9168e-01   7.9168e-01   7.9168e-01   7.9168e-01   7.9168e-01   7.9168e-01   7.9168e-01   7.9168e-01   7.9168e-01   7.9168e-01   7.9168e-01   7.9168e-01   7.9168e-01   7.9168e-01   7.9168e-01   7.9168e-01   7.9168e-01   7.9168e-01   7.9168e-01   7.9168e-01   7.9168e-01   7.9168e-01                 ! VS_FBP_Omega      - Operating schedule table: Generator speeds [rad/s].
6.8138e+05   8.7572e+05   1.1039e+06   1.3686e+06   1.6726e+06   2.0185e+06   2.4092e+06   2.8472e+06   3.3354e+06   3.8764e+06   4.4729e+06   5.1277e+06   5.8435e+06   6.6230e+06   7.4689e+06   8.3839e+06   9.1753e+06   9.8557e+06   1.0560e+07   1.1289e+07   1.2043e+07   1.2821e+07   1.3623e+07   1.4449e+07   1.5300e+07   1.6175e+07   1.7074e+07   1.7998e+07   1.8946e+07   1.9810e+07   1.9810e+07   1.9810e+07   1.9810e+07   1.9810e+07   1.9810e+07   1.9810e+07   1.9810e+07   1.9810e+07   1.9810e+07   1.9810e+07   1.9810e+07   1.9810e+07   1.9810e+07   1.9810e+07   1.9810e+07   1.9810e+07   1.9810e+07   1.9810e+07   1.9810e+07   1.9810e+07   1.9810e+07   1.9810e+07   1.9810e+07   1.9810e+07   1.9810e+07   1.9810e+07   1.9810e+07   1.9810e+07   1.9810e+07   1.9810e+07                 ! VS_FBP_Tau        - Operating schedule table: Generator torques [N m].

!------- SETPOINT SMOOTHER ---------------------------------------------
1.00000             ! SS_VSGain         - Variable speed torque controller setpoint smoother gain, [-].
0.00100             ! SS_PCGain         - Collective pitch controller setpoint smoother gain, [-].

!------- POWER REFERENCE TRACKING --------------------------------------
0                   ! PRC_Comm   - Power reference communication mode when PRC_Mode = 2, 0- use constant DISCON inputs, 1- use open loop inputs, 2- use ZMQ inputs
1.00000             ! PRC_R_Torque   - Constant power rating through changing the rated torque, used if PRC_Mode = 2, PRC_Comm = 0, default is 1, effective above rated [-]
1.00000             ! PRC_R_Speed   - Constant power rating through changing the rated generator speed, used if PRC_Mode = 2, PRC_Comm = 0, default is 1, effective above rated [-]
1.00000             ! PRC_R_Pitch   - Constant power rating through changing the fine pitch angle, used if PRC_Mode = 2, PRC_Comm = 0, default is 1, effective below rated [-]
20                  ! PRC_Table_n   - Number of elements in PRC_R to _Pitch table.  Used if PRC_Mode = 1.
0.0000       0.0526       0.1053       0.1579       0.2105       0.2632       0.3158       0.3684       0.4211       0.4737       0.5263       0.5789       0.6316       0.6842       0.7368       0.7895       0.8421       0.8947       0.9474       1.0000            ! PRC_R_Table   - Table of turbine rating versus fine pitch (PRC_Pitch_Table), length should be PRC_Table_n, default is 1 [-].  Used if PRC_Mode = 1.
0.2276       0.2203       0.2127       0.2050       0.1970       0.1888       0.1803       0.1716       0.1625       0.1531       0.1434       0.1331       0.1224       0.1113       0.0992       0.0863       0.0722       0.0561       0.0362       0.0000            ! PRC_Pitch_Table   - Table of fine pitch versus PRC_R_Table, length should be PRC_Table_n [rad].  Used if PRC_Mode = 1.
2                   ! PRC_n			    -  Number of elements in PRC_WindSpeeds and PRC_GenSpeeds array
0.07854             ! PRC_LPF_Freq   - Frequency of the low pass filter on the wind speed estimate used to set PRC_GenSpeeds [rad/s]
3.0000       25.0000           ! PRC_WindSpeeds   - Array of wind speeds used in rotor speed vs. wind speed lookup table [m/s]
7.9168e-01   7.9168e-01         ! PRC_GenSpeeds   - Array of generator speeds corresponding to PRC_WindSpeeds [rad/s]

!------- WIND SPEED ESTIMATOR ---------------------------------------------
120.970             ! WE_BladeRadius	- Blade length (distance from hub center to blade tip), [m]
1                   ! WE_CP_n			- Amount of parameters in the Cp array
0.0                 ! WE_CP - Parameters that define the parameterized CP(lambda) function
0.0          		  ! WE_Gamma			- Adaption gain of the wind speed estimator algorithm [m/rad]
1.0                 ! WE_GearboxRatio	- Gearbox ratio [>=1],  [-]
312456272.00000     ! WE_Jtot			- Total drivetrain inertia, including blades, hub and casted generator inertia to LSS, [kg m^2]
1.225               ! WE_RhoAir			- Air density, [kg m^-3]
"../IEA-15-240-RWT/Cp_Ct_Cq.IEA15MW.txt"      ! PerfFileName      - File containing rotor performance tables (Cp,Ct,Cq) (absolute path or relative to this file)
36      26          ! PerfTableSize     - Size of rotor performance tables, first number refers to number of blade pitch angles, second number referse to number of tip-speed ratios
60                  ! WE_FOPoles_N      - Number of first-order system poles used in EKF
3.000        3.262        3.523        3.785        4.047        4.309        4.570        4.832        5.094        5.356        5.617        5.879        6.141        6.402        6.664        6.926        7.188        7.449        7.711        7.973        8.234        8.496        8.758        9.020        9.281        9.543        9.805        10.067       10.328       10.590       11.070       11.551       12.031       12.511       12.992       13.472       13.952       14.433       14.913       15.393       15.874       16.354       16.834       17.315       17.795       18.275       18.756       19.236       19.716       20.197       20.677       21.157       21.638       22.118       22.598       23.079       23.559       24.039       24.520       25.000                     ! WE_FOPoles_v      - Wind speeds corresponding to first-order system poles [m/s]
-2.568e-02   -2.792e-02   -3.016e-02   -3.240e-02   -3.464e-02   -3.688e-02   -3.912e-02   -4.136e-02   -4.360e-02   -4.584e-02   -4.808e-02   -5.032e-02   -5.256e-02   -5.480e-02   -5.704e-02   -5.928e-02   -6.152e-02   -6.376e-02   -6.600e-02   -6.824e-02   -7.048e-02   -7.272e-02   -7.496e-02   -7.721e-02   -7.945e-02   -8.169e-02   -8.393e-02   -8.617e-02   -8.841e-02   -9.124e-02   -5.920e-02   -6.221e-02   -6.946e-02   -7.890e-02   -8.979e-02   -1.017e-01   -1.146e-01   -1.279e-01   -1.420e-01   -1.568e-01   -1.719e-01   -1.876e-01   -2.039e-01   -2.204e-01   -2.376e-01   -2.550e-01   -2.729e-01   -2.912e-01   -3.098e-01   -3.290e-01   -3.483e-01   -3.681e-01   -3.881e-01   -4.087e-01   -4.293e-01   -4.504e-01   -4.717e-01   -4.933e-01   -5.151e-01   -5.371e-01                 ! WE_FOPoles        - First order system poles [1/s]

!------- YAW CONTROL ------------------------------------------------------
0.00000             ! Y_uSwitch		- Wind speed to switch between Y_ErrThresh. If zero, only the second value of Y_ErrThresh is used [m/s]
4.000        8.000        ! Y_ErrThresh    - Yaw error threshold/deadbands. Turbine begins to yaw when it passes this. If Y_uSwitch is zero, only the second value is used. [deg].
0.00870             ! Y_Rate			- Yaw rate [rad/s]
0.00000             ! Y_MErrSet		- Integrator saturation (maximum signal amplitude contribution to pitch from yaw-by-IPC), [rad]
0.00000             ! Y_IPC_IntSat		- Integrator saturation (maximum signal amplitude contribution to pitch from yaw-by-IPC), [rad]
0.00000             ! Y_IPC_KP			- Yaw-by-IPC proportional controller gain Kp
0.00000             ! Y_IPC_KI			- Yaw-by-IPC integral controller gain Ki

!------- TOWER CONTROL ------------------------------------------------------
0.00000             ! TRA_ExclSpeed	    - Rotor speed for exclusion [LSS, rad/s]
0.00000             ! TRA_ExclBand	    - Size of the rotor frequency exclusion band [LSS, rad/s]. Torque controller reference will be TRA_ExclSpeed +/- TRA_ExlBand/2
0.00000e+00         ! TRA_RateLimit	    - Rate limit of change in rotor speed reference [LSS, rad/s].  Suggested to be VS_RefSpd/400.
0.00000             ! FA_KI				- Integral gain for the fore-aft tower damper controller,  [rad*s/m]
0.00000             ! FA_HPFCornerFreq	- Corner frequency (-3dB point) in the high-pass filter on the fore-aft acceleration signal [rad/s]
0.00000             ! FA_IntSat			- Integrator saturation (maximum signal amplitude contribution to pitch from FA damper), [rad]

!------- MINIMUM PITCH SATURATION -------------------------------------------
60                  ! PS_BldPitchMin_N  - Number of values in minimum blade pitch lookup table (should equal number of values in PS_WindSpeeds and PS_BldPitchMin)
3.0000    3.2617    3.5234    3.7852    4.0469    4.3086    4.5703    4.8321    5.0938    5.3555    5.6172    5.8790    6.1407    6.4024    6.6641    6.9259    7.1876    7.4493    7.7110    7.9728    8.2345    8.4962    8.7579    9.0197    9.2814    9.5431    9.8048    10.0666   10.3283   10.5900   11.0703   11.5507   12.0310   12.5113   12.9917   13.4720   13.9523   14.4327   14.9130   15.3933   15.8737   16.3540   16.8343   17.3147   17.7950   18.2753   18.7557   19.2360   19.7163   20.1967   20.6770   21.1573   21.6377   22.1180   22.5983   23.0787   23.5590   24.0393   24.5197   25.0000                 ! PS_WindSpeeds     - Wind speeds corresponding to minimum blade pitch angles [m/s]
0.0600    0.0600    0.0600    0.0600    0.0600    0.0600    0.0567    0.0527    0.0480    0.0425    0.0367    0.0304    0.0237    0.0170    0.0100    0.0030    0.0000    0.0000    0.0000    0.0000    0.0000    0.0000    0.0000    0.0000    0.0000    0.0000    0.0000    0.0000    0.0000    0.0000    0.0142    0.0268    0.0383    0.0490    0.0591    0.0690    0.0784    0.0877    0.0967    0.1056    0.1143    0.1229    0.1313    0.1397    0.1479    0.1561    0.1642    0.1722    0.1801    0.1880    0.1959    0.2036    0.2114    0.2190    0.2267    0.2342    0.2418    0.2492    0.2567    0.2641                  ! PS_BldPitchMin    - Minimum blade pitch angles [rad]

!------- STARTUP -----------------------------------------------------------
120.0000000000        ! SU_StartTime            - Time to start startup routine [s]
200.0000000000        ! SU_FW_MinDuration       - Free-wheel minimum duration [s]
0.520000000000        ! SU_RotorSpeedThresh     - Rotor speed threshhold to switch from freewheel to loads [rad/s]
0.418880000000        ! SU_RotorSpeedCornerFreq - Cutoff Frequency for first order low-pass filter for rotor speed for startup [rad/s]
2                     ! SU_LoadStages_N           - Number of load staged for startup (should equal number of values in SU_LoadStages, SU_LoadRampDuration and SU_LoadHoldDuration)
0.2000 1.0000         ! SU_LoadStages        - Array containing loads as a fraction of full generator torque during startup
100.0000 100.0000         ! SU_LoadRampDuration  - Array containing ramp duration to reach the corresponding partial loads during startup [s]
200.0000 100.0000         ! SU_LoadHoldDuration  - Array containing duration to hold the partial loads during startup [s]

!------- SHUTDOWN -----------------------------------------------------------
0                   ! SD_TimeActivate        - Time to acitvate shutdown modes, [s]
0                   ! SD_EnablePitch         - Shutdown when collective blade pitch exceeds a threshold, [-]
0                   ! SD_EnableYawError      - Shutdown when yaw error exceeds a threshold, [-]
0                   ! SD_EnableGenSpeed      - Shutdown when generator speed exceeds a threshold, [-]
0                   ! SD_EnableTime          - Shutdown at a predefined time, [-]
0.395990000000      ! SD_MaxPit              - Maximum blade pitch angle to initiate shutdown, [rad]
0.418880000000      ! SD_PitchCornerFreq     - Cutoff Frequency for first order low-pass filter for blade pitch angle for shutdown, [rad/s]
30.00000000000      ! SD_MaxYawError         - Maximum yaw error to initiate shutdown, [deg]
0.418880000000      ! SD_YawErrorCornerFreq  - Cutoff Frequency for first order low-pass filter for yaw error for shutdown, [rad/s]
0.950020000000      ! SD_MaxGenSpd           - Maximum generator speed to initiate shutdown, [rad/s]
0.418880000000      ! SD_GenSpdCornerFreq    - Cutoff Frequency for first order low-pass filter for generator speed for shutdown, [rad/s] 
9999.000000000      ! SD_Time                - Shutdown time, [s]
1                   ! SD_Method              - Shutdown method {1- Reduce generator torque and increase blade pitch in timed stages (SD_StageTime), 2- stages depend on pitch angle (SD_StagePitch)}
1                   ! SD_Stage_N             - Number of shutdown stages (should equal number of values in SD_MaxPitchRate and SD_MaxTorqueRate) [-]
1000.0000           ! SD_StageTime           - Array containing the time to spend in each shutdown stage [s]
1.5708              ! SD_StagePitch          - Array with pitch angles to reach in each shutdown stage [rad]. If the pitch < SD_StagePitch[i], the SD_Stage = i.  If pitch > SD_StagePitch[SD_Stage_N], the maximum rates are used.
225000.0000         ! SD_MaxTorqueRate       - Maximum torque rate for shutdown [Nm/s]
0.0044              ! SD_MaxPitchRate        - Maximum pitch rate used for shutdown [rad/s]

!------- Floating -----------------------------------------------------------
1                   ! Fl_n              - Number of Fl_Kp gains in gain scheduling, optional with default of 1
0.0000              ! Fl_Kp             - Nacelle velocity proportional feedback gain [s]
0.0000              ! Fl_U              - Wind speeds for scheduling Fl_Kp, optional if Fl_Kp is single value [m/s]

!------- FLAP ACTUATION -----------------------------------------------------
0.000000000000      ! Flp_Angle         - Initial or steady state flap angle [rad]
0.00000000e+00      ! Flp_Kp            - Blade root bending moment proportional gain for flap control [s]
0.00000000e+00      ! Flp_Ki            - Flap displacement integral gain for flap control [-]
0.174500000000      ! Flp_MaxPit        - Maximum (and minimum) flap pitch angle [rad]

!------- Open Loop Control -----------------------------------------------------
"unused"            ! OL_Filename       - Input file with open loop timeseries (absolute path or relative to this file)
0                   ! OL_BP_Mode        - Breakpoint mode for open loop control, 0 - indexed by time (default), 1 - indexed by wind speed]
0.000000            ! OL_BP_FiltFreq    - Natural frequency of 1st order filter on breakpoint for open loop control. 0 will skip filter.
0                   ! Ind_Breakpoint    - The column in OL_Filename that contains the breakpoint (time if OL_Mode = 1)
0    0    0             ! Ind_BldPitch      - The columns in OL_Filename that contains the blade pitch (1,2,3) inputs in rad [array]
0                   ! Ind_GenTq         - The column in OL_Filename that contains the generator torque in Nm
0                   ! Ind_YawRate       - The column in OL_Filename that contains the yaw rate in rad/s
0                   ! Ind_Azimuth       - The column in OL_Filename that contains the desired azimuth position in rad (used if OL_Mode = 2)
0.0000   0.0000   0.0000   0.0000           ! RP_Gains - PID gains and Tf of derivative for rotor position control (used if OL_Mode = 2)
0                   ! Ind_CableControl  - The column(s) in OL_Filename that contains the cable control inputs in m [Used with CC_Mode = 2, must be the same size as CC_Group_N]
0                   ! Ind_StructControl - The column(s) in OL_Filename that contains the structural control inputs [Used with StC_Mode = 2, must be the same size as StC_Group_N]
0                   ! Ind_R_Speed       - Index (column, 1-indexed) of power rating via speed offset
0                   ! Ind_R_Torque      - Index (column, 1-indexed) of power rating via torque offset
0                   ! Ind_R_Pitch       - Index (column, 1-indexed) of power rating via pitch offset

!------- Pitch Actuator Model -----------------------------------------------------
3.140000000000       ! PA_CornerFreq     - Pitch actuator bandwidth/cut-off frequency [rad/s]