# ----- Rotor performance tables for the OpenFAST_5MW wind turbine ----- 
# ------------ Written on Oct-28-19 using the ROSCO toolbox ------------ 

# Pitch angle vector - x axis (matrix columns) (deg)
-1.0   -0.5   0.0   0.5   1.0   1.5   2.0   2.5   3.0   3.5   4.0   4.5   5.0   5.5   6.0   6.5   7.0   7.5   8.0   8.5   9.0   9.5   1e+01   1e+01   1.1e+01   1.2e+01   1.2e+01   1.2e+01   1.3e+01   1.4e+01   1.4e+01   1.5e+01   1.5e+01   1.6e+01   1.6e+01   1.6e+01   1.7e+01   1.8e+01   1.8e+01   1.8e+01   1.9e+01   2e+01   2e+01   2e+01   2.1e+01   2.2e+01   2.2e+01   2.2e+01   2.3e+01   2.4e+01   2.4e+01   2.4e+01   
# TSR vector - y axis (matrix rows) (-)
3.0    3.5    4.0    4.5    5.0    5.5    6.0    6.5    7.0    7.5    8.0    8.5    9.0    9.5    1e+01    1e+01    1.1e+01    1.2e+01    1.2e+01    1.2e+01    1.3e+01    1.4e+01    1.4e+01    1.4e+01    
# Wind speed vector - z axis (m/s)
11.4    

# Power coefficient

0.08954   0.09439   0.09914   0.10379   0.10831   0.11269   0.11691   0.12097   0.12485   0.12853   0.13199   0.13523   0.13823   0.14097   0.14344   0.14564   0.14755   0.14916   0.15048   0.15149   0.15219   0.15260   0.15270   0.15250   0.15201   0.15122   0.15013   0.14876   0.14711   0.14516   0.14294   0.14043   0.13764   0.13457   0.13123   0.12762   0.12373   0.11959   0.11518   0.11053   0.10564   0.10052   0.09517   0.08961   0.08385   0.07791   0.07179   0.06550   0.05907   0.05250   0.04583   0.03905   
0.14151   0.14750   0.15325   0.15874   0.16394   0.16882   0.17337   0.17756   0.18137   0.18478   0.18778   0.19035   0.19249   0.19419   0.19545   0.19627   0.19666   0.19662   0.19615   0.19526   0.19395   0.19221   0.19004   0.18746   0.18445   0.18103   0.17718   0.17293   0.16828   0.16323   0.15781   0.15202   0.14588   0.13941   0.13263   0.12556   0.11820   0.11059   0.10273   0.09465   0.08635   0.07785   0.06918   0.06034   0.05136   0.04226   0.03307   0.02380   0.01448   0.00515   -0.00417   -0.01346   
0.20124   0.20794   0.21416   0.21987   0.22504   0.22964   0.23365   0.23707   0.23988   0.24208   0.24368   0.24468   0.24508   0.24489   0.24409   0.24269   0.24069   0.23808   0.23487   0.23105   0.22664   0.22165   0.21609   0.20998   0.20334   0.19621   0.18862   0.18058   0.17214   0.16332   0.15415   0.14465   0.13483   0.12474   0.11437   0.10375   0.09288   0.08180   0.07051   0.05903   0.04738   0.03560   0.02370   0.01173   -0.00028   -0.01229   -0.02426   -0.03617   -0.04797   -0.05966   -0.07122   -0.08266   
0.26576   0.27238   0.27823   0.28327   0.28751   0.29092   0.29353   0.29531   0.29628   0.29643   0.29575   0.29423   0.29189   0.28872   0.28473   0.27993   0.27434   0.26800   0.26094   0.25320   0.24481   0.23582   0.22628   0.21623   0.20569   0.19472   0.18333   0.17156   0.15943   0.14697   0.13420   0.12111   0.10774   0.09409   0.08017   0.06601   0.05161   0.03700   0.02223   0.00732   -0.00768   -0.02271   -0.03773   -0.05267   -0.06750   -0.08217   -0.09666   -0.11098   -0.12513   -0.13914   -0.15306   -0.16695   
0.33082   0.33646   0.34102   0.34449   0.34687   0.34816   0.34835   0.34744   0.34545   0.34239   0.33827   0.33312   0.32699   0.31992   0.31197   0.30318   0.29361   0.28331   0.27233   0.26072   0.24852   0.23579   0.22254   0.20883   0.19467   0.18010   0.16514   0.14980   0.13409   0.11803   0.10161   0.08484   0.06773   0.05031   0.03261   0.01465   -0.00352   -0.02184   -0.04024   -0.05865   -0.07699   -0.09518   -0.11319   -0.13097   -0.14850   -0.16581   -0.18291   -0.19988   -0.21682   -0.23382   -0.25100   -0.26842   
0.39041   0.39404   0.39630   0.39717   0.39668   0.39485   0.39173   0.38735   0.38177   0.37504   0.36722   0.35837   0.34856   0.33785   0.32628   0.31390   0.30078   0.28696   0.27247   0.25737   0.24169   0.22547   0.20873   0.19151   0.17380   0.15564   0.13701   0.11793   0.09838   0.07838   0.05793   0.03707   0.01583   -0.00574   -0.02760   -0.04965   -0.07181   -0.09398   -0.11605   -0.13793   -0.15955   -0.18088   -0.20189   -0.22261   -0.24309   -0.26345   -0.28382   -0.30435   -0.32519   -0.34644   -0.36816   -0.39033   
0.43663   0.43777   0.43737   0.43548   0.43214   0.42739   0.42130   0.41393   0.40534   0.39560   0.38476   0.37288   0.36001   0.34620   0.33150   0.31596   0.29963   0.28254   0.26475   0.24629   0.22718   0.20747   0.18715   0.16624   0.14474   0.12264   0.09994   0.07665   0.05277   0.02833   0.00336   -0.02206   -0.04788   -0.07399   -0.10029   -0.12663   -0.15290   -0.17897   -0.20473   -0.23012   -0.25512   -0.27975   -0.30407   -0.32823   -0.35242   -0.37682   -0.40165   -0.42706   -0.45314   -0.47993   -0.50739   -0.53538   
0.46531   0.46508   0.46321   0.45972   0.45467   0.44812   0.44011   0.43070   0.41995   0.40792   0.39467   0.38024   0.36470   0.34809   0.33047   0.31190   0.29243   0.27209   0.25094   0.22899   0.20628   0.18281   0.15858   0.13358   0.10781   0.08126   0.05395   0.02588   -0.00289   -0.03231   -0.06230   -0.09274   -0.12351   -0.15444   -0.18538   -0.21617   -0.24664   -0.27669   -0.30628   -0.33538   -0.36407   -0.39249   -0.42088   -0.44947   -0.47853   -0.50830   -0.53897   -0.57064   -0.60329   -0.63683   -0.67103   -0.70551   
0.47883   0.47885   0.47708   0.47347   0.46798   0.46068   0.45164   0.44090   0.42855   0.41465   0.39929   0.38254   0.36445   0.34511   0.32459   0.30294   0.28023   0.25649   0.23176   0.20606   0.17939   0.15174   0.12311   0.09349   0.06288   0.03130   -0.00124   -0.03467   -0.06890   -0.10384   -0.13932   -0.17516   -0.21117   -0.24717   -0.28294   -0.31831   -0.35313   -0.38738   -0.42107   -0.45432   -0.48737   -0.52051   -0.55407   -0.58836   -0.62368   -0.66028   -0.69824   -0.73753   -0.77798   -0.81923   -0.86080   -0.90223   
0.48140   0.48281   0.48225   0.47956   0.47461   0.46736   0.45789   0.44628   0.43265   0.41712   0.39979   0.38076   0.36015   0.33805   0.31453   0.28967   0.26353   0.23613   0.20750   0.17763   0.14652   0.11417   0.08057   0.04573   0.00965   -0.02762   -0.06600   -0.10540   -0.14565   -0.18657   -0.22794   -0.26951   -0.31107   -0.35236   -0.39314   -0.43329   -0.47274   -0.51154   -0.54988   -0.58808   -0.62652   -0.66555   -0.70560   -0.74703   -0.79016   -0.83508   -0.88175   -0.92993   -0.97914   -1.02879   -1.07835   -1.12736   
0.47610   0.47949   0.48079   0.47964   0.47585   0.46926   0.45983   0.44770   0.43304   0.41600   0.39678   0.37552   0.35235   0.32738   0.30072   0.27243   0.24256   0.21113   0.17814   0.14360   0.10750   0.06985   0.03066   -0.01007   -0.05228   -0.09588   -0.14075   -0.18668   -0.23345   -0.28078   -0.32842   -0.37607   -0.42344   -0.47026   -0.51632   -0.56157   -0.60607   -0.65006   -0.69395   -0.73817   -0.78318   -0.82946   -0.87750   -0.92767   -0.98014   -1.03488   -1.09159   -1.14968   -1.20846   -1.26729   -1.32561   -1.38300   
0.46531   0.47061   0.47398   0.47478   0.47252   0.46701   0.45805   0.44572   0.43023   0.41182   0.39075   0.36721   0.34138   0.31339   0.28334   0.25130   0.21731   0.18137   0.14351   0.10373   0.06205   0.01846   -0.02701   -0.07430   -0.12332   -0.17391   -0.22584   -0.27883   -0.33258   -0.38678   -0.44109   -0.49516   -0.54865   -0.60130   -0.65301   -0.70385   -0.75409   -0.80420   -0.85472   -0.90617   -0.95912   -1.01417   -1.07182   -1.13233   -1.19573   -1.26169   -1.32954   -1.39849   -1.46775   -1.53663   -1.60460   -1.67131   
0.45149   0.45792   0.46295   0.46574   0.46533   0.46115   0.45301   0.44074   0.42461   0.40491   0.38198   0.35608   0.32743   0.29617   0.26241   0.22622   0.18764   0.14669   0.10340   0.05778   0.00986   -0.04035   -0.09278   -0.14734   -0.20384   -0.26204   -0.32160   -0.38219   -0.44344   -0.50496   -0.56636   -0.62721   -0.68717   -0.74608   -0.80395   -0.86109   -0.91801   -0.97533   -1.03368   -1.09371   -1.15611   -1.22156   -1.29048   -1.36298   -1.43879   -1.51718   -1.59727   -1.67811   -1.75881   -1.83871   -1.91733   -1.99453   
0.43562   0.44295   0.44902   0.45333   0.45479   0.45216   0.44501   0.43307   0.41643   0.39548   0.37064   0.34224   0.31054   0.27571   0.23786   0.19706   0.15339   0.10687   0.05756   0.00546   -0.04938   -0.10692   -0.16704   -0.22956   -0.29422   -0.36064   -0.42844   -0.49719   -0.56646   -0.63579   -0.70471   -0.77276   -0.83965   -0.90535   -0.97010   -1.03446   -1.09914   -1.16484   -1.23234   -1.30241   -1.37589   -1.45342   -1.53530   -1.62137   -1.71093   -1.80298   -1.89644   -1.99022   -2.08343   -2.17543   -2.26592   -2.35497   
0.41778   0.42616   0.43309   0.43847   0.44140   0.44039   0.43436   0.42290   0.40587   0.38367   0.35681   0.32573   0.29070   0.25193   0.20956   0.16368   0.11437   0.06171   0.00572   -0.05353   -0.11602   -0.18162   -0.25016   -0.32137   -0.39484   -0.47014   -0.54679   -0.62430   -0.70216   -0.77983   -0.85675   -0.93247   -1.00685   -1.08002   -1.15253   -1.22516   -1.29872   -1.37408   -1.45212   -1.53381   -1.62006   -1.71140   -1.80792   -1.90905   -2.01370   -2.12066   -2.22866   -2.33654   -2.44341   -2.54876   -2.65255   -2.75494   
0.39798   0.40760   0.41551   0.42174   0.42576   0.42616   0.42131   0.41039   0.39303   0.36955   0.34054   0.30652   0.26784   0.22473   0.17736   0.12588   0.07038   0.01094   -0.05238   -0.11953   -0.19040   -0.26483   -0.34255   -0.42315   -0.50615   -0.59101   -0.67719   -0.76410   -0.85114   -0.93768   -1.02311   -1.10707   -1.18957   -1.27105   -1.35232   -1.43430   -1.51795   -1.60429   -1.69440   -1.78937   -1.89013   -1.99705   -2.10985   -2.22748   -2.34861   -2.47179   -2.59559   -2.71881   -2.84065   -2.96081   -3.07943   -3.19673   
0.37623   0.38727   0.39631   0.40341   0.40834   0.40977   0.40603   0.39565   0.37798   0.35314   0.32179   0.28455   0.24184   0.19396   0.14112   0.08348   0.02118   -0.04570   -0.11707   -0.19286   -0.27291   -0.35696   -0.44463   -0.53539   -0.62865   -0.72380   -0.82020   -0.91717   -1.01401   -1.10997   -1.20447   -1.29729   -1.38867   -1.47939   -1.57045   -1.66292   -1.75794   -1.85671   -1.96047   -2.07049   -2.18758   -2.31185   -2.44252   -2.57817   -2.71721   -2.85799   -2.99893   -3.13885   -3.27712   -3.41369   -3.54877   -3.68266   
0.35251   0.36517   0.37550   0.38358   0.38932   0.39156   0.38866   0.37875   0.36073   0.33441   0.30049   0.25972   0.21259   0.15948   0.10064   0.03627   -0.03347   -0.10849   -0.18867   -0.27391   -0.36396   -0.45847   -0.55689   -0.65858   -0.76289   -0.86908   -0.97641   -1.08410   -1.19133   -1.29729   -1.40147   -1.50383   -1.60496   -1.70591   -1.80786   -1.91205   -2.01981   -2.13252   -2.25167   -2.37855   -2.51383   -2.65720   -2.80736   -2.96260   -3.12106   -3.28088   -3.44039   -3.59851   -3.75484   -3.90950   -4.06278   -4.21501   
0.32683   0.34128   0.35307   0.36224   0.36875   0.37171   0.36930   0.35975   0.34126   0.31331   0.27657   0.23192   0.17996   0.12113   0.05574   -0.01597   -0.09385   -0.17777   -0.26758   -0.36312   -0.46403   -0.56981   -0.67980   -0.79325   -0.90938   -1.02736   -1.14634   -1.26542   -1.38366   -1.50022   -1.61472   -1.72743   -1.83926   -1.95149   -2.06549   -2.18269   -2.30464   -2.43295   -2.56928   -2.71494   -2.87029   -3.03451   -3.20584   -3.38229   -3.56174   -3.74212   -3.92174   -4.09969   -4.27582   -4.45036   -4.62365   -4.79607   
0.29915   0.31558   0.32897   0.33934   0.34664   0.35022   0.34809   0.33865   0.31954   0.28978   0.24994   0.20103   0.14379   0.07873   0.00619   -0.07355   -0.16031   -0.25392   -0.35422   -0.46091   -0.57355   -0.69145   -0.81384   -0.93985   -1.06860   -1.19914   -1.33049   -1.46163   -1.59151   -1.71932   -1.84490   -1.96883   -2.09238   -2.21700   -2.34428   -2.47589   -2.61357   -2.75919   -2.91461   -3.08099   -3.25832   -3.44516   -3.63941   -3.83877   -4.04084   -4.24339   -4.44478   -4.64432   -4.84208   -5.03836   -5.23357   -5.42811   
0.26948   0.28803   0.30317   0.31483   0.32297   0.32711   0.32510   0.31544   0.29552   0.26373   0.22047   0.16692   0.10391   0.03203   -0.04830   -0.13678   -0.23319   -0.33734   -0.44897   -0.56770   -0.69291   -0.82379   -0.95941   -1.09882   -1.24099   -1.38486   -1.52933   -1.67323   -1.81542   -1.95520   -2.09267   -2.22881   -2.36513   -2.50332   -2.64520   -2.79265   -2.94770   -3.11247   -3.28893   -3.47805   -3.67924   -3.89055   -4.10953   -4.33356   -4.55996   -4.78637   -5.01130   -5.23431   -5.45562   -5.67561   -5.89473   -6.11336   
0.23789   0.25862   0.27562   0.28868   0.29771   0.30232   0.30029   0.29010   0.26911   0.23504   0.18802   0.12937   0.06006   -0.01923   -0.10802   -0.20598   -0.31284   -0.42836   -0.55220   -0.68383   -0.82248   -0.96718   -1.11690   -1.27055   -1.42699   -1.58501   -1.74336   -1.90074   -2.05597   -2.20849   -2.35876   -2.50811   -2.65833   -2.81134   -2.96918   -3.13402   -3.30816   -3.49399   -3.69354   -3.90742   -4.13441   -4.37210   -4.61768   -4.86820   -5.12070   -5.37277   -5.62313   -5.87157   -6.11843   -6.36418   -6.60927   -6.85402   
0.20463   0.22734   0.24629   0.26083   0.27077   0.27579   0.27360   0.26257   0.24020   0.20355   0.15239   0.08816   0.01201   -0.07531   -0.17326   -0.28144   -0.39955   -0.52729   -0.66420   -0.80961   -0.96257   -1.12199   -1.28670   -1.45548   -1.62705   -1.80005   -1.97308   -2.14470   -2.31373   -2.47984   -2.64388   -2.80753   -2.97282   -3.14194   -3.31719   -3.50103   -3.69606   -3.90495   -4.12968   -4.37037   -4.62517   -4.89120   -5.16532   -5.44421   -5.72467   -6.00430   -6.28207   -6.55800   -6.83252   -7.10614   -7.37931   -7.65228   
0.17001   0.19426   0.21515   0.23122   0.24207   0.24742   0.24489   0.23274   0.20864   0.16907   0.11336   0.04309   -0.04047   -0.13644   -0.24423   -0.36339   -0.49357   -0.63438   -0.78526   -0.94534   -1.11353   -1.28859   -1.46922   -1.65405   -1.84164   -2.03049   -2.21902   -2.40567   -2.58931   -2.76992   -2.94876   -3.12782   -3.30942   -3.49601   -3.69018   -3.89470   -4.11252   -4.34655   -4.59860   -4.86818   -5.15283   -5.44925   -5.75391   -6.06312   -6.37347   -6.68266   -6.98993   -7.29550   -7.59985   -7.90355   -8.20699   -8.51032   


#  Thrust coefficient

0.23064   0.23136   0.23193   0.23235   0.23261   0.23271   0.23263   0.23238   0.23195   0.23135   0.23058   0.22963   0.22852   0.22724   0.22580   0.22420   0.22244   0.22053   0.21846   0.21624   0.21386   0.21132   0.20861   0.20574   0.20270   0.19948   0.19608   0.19250   0.18873   0.18477   0.18061   0.17626   0.17171   0.16695   0.16200   0.15684   0.15148   0.14591   0.14016   0.13421   0.12808   0.12177   0.11530   0.10867   0.10190   0.09501   0.08800   0.08090   0.07371   0.06646   0.05915   0.05180   
0.29620   0.29602   0.29561   0.29496   0.29409   0.29299   0.29168   0.29016   0.28843   0.28649   0.28434   0.28199   0.27943   0.27666   0.27367   0.27045   0.26701   0.26333   0.25940   0.25523   0.25079   0.24608   0.24109   0.23583   0.23027   0.22442   0.21827   0.21182   0.20508   0.19805   0.19073   0.18313   0.17527   0.16716   0.15880   0.15023   0.14145   0.13250   0.12337   0.11410   0.10471   0.09521   0.08563   0.07597   0.06627   0.05654   0.04681   0.03707   0.02737   0.01771   0.00810   -0.00143   
0.36579   0.36434   0.36261   0.36063   0.35838   0.35587   0.35310   0.35006   0.34674   0.34313   0.33922   0.33500   0.33046   0.32558   0.32034   0.31473   0.30873   0.30234   0.29554   0.28833   0.28070   0.27266   0.26421   0.25536   0.24613   0.23652   0.22657   0.21629   0.20570   0.19483   0.18370   0.17234   0.16077   0.14902   0.13710   0.12505   0.11288   0.10062   0.08830   0.07593   0.06353   0.05114   0.03876   0.02641   0.01413   0.00193   -0.01017   -0.02215   -0.03399   -0.04565   -0.05712   -0.06837   
0.43913   0.43623   0.43298   0.42940   0.42545   0.42113   0.41641   0.41127   0.40568   0.39962   0.39305   0.38597   0.37835   0.37019   0.36147   0.35219   0.34237   0.33202   0.32115   0.30980   0.29798   0.28574   0.27309   0.26007   0.24671   0.23304   0.21908   0.20486   0.19042   0.17578   0.16096   0.14600   0.13091   0.11572   0.10046   0.08516   0.06982   0.05450   0.03919   0.02394   0.00877   -0.00630   -0.02124   -0.03604   -0.05065   -0.06505   -0.07922   -0.09313   -0.10674   -0.12001   -0.13292   -0.14541   
0.51595   0.51113   0.50579   0.49989   0.49340   0.48628   0.47850   0.47004   0.46089   0.45103   0.44047   0.42922   0.41729   0.40472   0.39155   0.37780   0.36351   0.34872   0.33347   0.31780   0.30172   0.28529   0.26853   0.25147   0.23413   0.21656   0.19877   0.18079   0.16265   0.14438   0.12600   0.10756   0.08906   0.07055   0.05205   0.03359   0.01521   -0.00307   -0.02122   -0.03922   -0.05702   -0.07460   -0.09192   -0.10896   -0.12568   -0.14204   -0.15799   -0.17350   -0.18850   -0.20295   -0.21678   -0.22993   
0.59326   0.58535   0.57663   0.56708   0.55667   0.54542   0.53331   0.52039   0.50667   0.49220   0.47701   0.46115   0.44466   0.42759   0.40997   0.39184   0.37324   0.35421   0.33477   0.31496   0.29481   0.27434   0.25359   0.23258   0.21136   0.18993   0.16835   0.14663   0.12481   0.10293   0.08102   0.05912   0.03725   0.01545   -0.00624   -0.02779   -0.04917   -0.07033   -0.09125   -0.11190   -0.13222   -0.15218   -0.17173   -0.19083   -0.20943   -0.22746   -0.24487   -0.26158   -0.27753   -0.29263   -0.30681   -0.31999   
0.66436   0.65222   0.63913   0.62510   0.61016   0.59433   0.57766   0.56020   0.54199   0.52309   0.50352   0.48334   0.46257   0.44126   0.41943   0.39713   0.37438   0.35121   0.32767   0.30377   0.27955   0.25504   0.23028   0.20530   0.18014   0.15483   0.12942   0.10393   0.07841   0.05289   0.02743   0.00204   -0.02321   -0.04830   -0.07319   -0.09783   -0.12218   -0.14620   -0.16984   -0.19306   -0.21580   -0.23800   -0.25961   -0.28055   -0.30076   -0.32014   -0.33862   -0.35610   -0.37248   -0.38769   -0.40163   -0.41420   
0.72451   0.70826   0.69105   0.67288   0.65382   0.63389   0.61313   0.59159   0.56930   0.54631   0.52265   0.49836   0.47348   0.44804   0.42207   0.39562   0.36872   0.34140   0.31369   0.28565   0.25730   0.22868   0.19983   0.17081   0.14163   0.11236   0.08304   0.05370   0.02441   -0.00481   -0.03390   -0.06282   -0.09152   -0.11994   -0.14805   -0.17579   -0.20311   -0.22996   -0.25626   -0.28197   -0.30700   -0.33129   -0.35475   -0.37727   -0.39878   -0.41916   -0.43829   -0.45608   -0.47242   -0.48719   -0.50032   -0.51172   
0.77424   0.75463   0.73408   0.71255   0.69001   0.66652   0.64211   0.61682   0.59070   0.56380   0.53616   0.50783   0.47886   0.44929   0.41915   0.38850   0.35737   0.32581   0.29385   0.26156   0.22897   0.19613   0.16308   0.12989   0.09659   0.06324   0.02990   -0.00339   -0.03657   -0.06959   -0.10239   -0.13492   -0.16711   -0.19893   -0.23029   -0.26114   -0.29142   -0.32105   -0.34995   -0.37805   -0.40525   -0.43144   -0.45651   -0.48036   -0.50285   -0.52385   -0.54324   -0.56089   -0.57669   -0.59054   -0.60239   -0.61218   
0.81606   0.79366   0.77035   0.74599   0.72051   0.69386   0.66609   0.63726   0.60745   0.57671   0.54513   0.51276   0.47966   0.44589   0.41150   0.37654   0.34107   0.30515   0.26882   0.23214   0.19517   0.15796   0.12058   0.08307   0.04551   0.00795   -0.02954   -0.06691   -0.10408   -0.14101   -0.17761   -0.21383   -0.24960   -0.28484   -0.31949   -0.35347   -0.38669   -0.41907   -0.45050   -0.48088   -0.51009   -0.53800   -0.56446   -0.58935   -0.61250   -0.63377   -0.65301   -0.67011   -0.68498   -0.69755   -0.70778   -0.71566   
0.85209   0.82714   0.80136   0.77448   0.74636   0.71688   0.68599   0.65379   0.62037   0.58584   0.55030   0.51383   0.47653   0.43846   0.39969   0.36030   0.32035   0.27991   0.23905   0.19783   0.15632   0.11459   0.07270   0.03074   -0.01124   -0.05316   -0.09494   -0.13651   -0.17781   -0.21874   -0.25925   -0.29924   -0.33865   -0.37738   -0.41536   -0.45247   -0.48863   -0.52372   -0.55760   -0.59015   -0.62121   -0.65065   -0.67828   -0.70393   -0.72744   -0.74865   -0.76743   -0.78367   -0.79732   -0.80834   -0.81670   -0.82246   
0.88407   0.85641   0.82817   0.79895   0.76836   0.73625   0.70246   0.66701   0.63005   0.59172   0.55217   0.51153   0.46992   0.42742   0.38415   0.34017   0.29558   0.25046   0.20490   0.15896   0.11274   0.06631   0.01975   -0.02684   -0.07339   -0.11982   -0.16603   -0.21195   -0.25749   -0.30255   -0.34707   -0.39093   -0.43405   -0.47633   -0.51767   -0.55794   -0.59702   -0.63476   -0.67102   -0.70563   -0.73843   -0.76922   -0.79780   -0.82398   -0.84759   -0.86846   -0.88651   -0.90166   -0.91387   -0.92311   -0.92943   -0.93292   
0.91380   0.88280   0.85176   0.82010   0.78715   0.75248   0.71593   0.67735   0.63689   0.59474   0.55113   0.50622   0.46017   0.41312   0.36517   0.31644   0.26704   0.21706   0.16661   0.11577   0.06465   0.01335   -0.03805   -0.08944   -0.14073   -0.19182   -0.24262   -0.29302   -0.34293   -0.39225   -0.44088   -0.48871   -0.53564   -0.58153   -0.62627   -0.66972   -0.71171   -0.75209   -0.79068   -0.82728   -0.86168   -0.89366   -0.92299   -0.94947   -0.97293   -0.99326   -1.01039   -1.02424   -1.03480   -1.04208   -1.04619   -1.04731   
0.94221   0.90752   0.87310   0.83860   0.80321   0.76604   0.72677   0.68516   0.64123   0.59524   0.54747   0.49818   0.44756   0.39579   0.34300   0.28935   0.23494   0.17992   0.12439   0.06846   0.01226   -0.04411   -0.10053   -0.15689   -0.21309   -0.26901   -0.32454   -0.37958   -0.43401   -0.48771   -0.54058   -0.59248   -0.64330   -0.69290   -0.74111   -0.78777   -0.83270   -0.87571   -0.91658   -0.95508   -0.99096   -1.02395   -1.05384   -1.08042   -1.10355   -1.12315   -1.13915   -1.15150   -1.16020   -1.16535   -1.16714   -1.16585   
0.96963   0.93111   0.89299   0.85518   0.81700   0.77728   0.73529   0.69069   0.64331   0.59343   0.54143   0.48763   0.43229   0.37563   0.31782   0.25905   0.19946   0.13919   0.07838   0.01718   -0.04430   -0.10592   -0.16754   -0.22906   -0.29034   -0.35126   -0.41169   -0.47152   -0.53062   -0.58885   -0.64610   -0.70221   -0.75704   -0.81043   -0.86219   -0.91212   -0.96001   -1.00563   -1.04873   -1.08903   -1.12624   -1.16009   -1.19034   -1.21683   -1.23946   -1.25814   -1.27281   -1.28345   -1.29014   -1.29304   -1.29246   -1.28875   
0.99628   0.95381   0.91183   0.87038   0.82899   0.78650   0.74175   0.69414   0.64332   0.58952   0.53317   0.47473   0.41451   0.35278   0.28978   0.22569   0.16071   0.09500   0.02873   -0.03795   -0.10490   -0.17196   -0.23898   -0.30584   -0.37239   -0.43849   -0.50401   -0.56880   -0.63274   -0.69568   -0.75746   -0.81793   -0.87690   -0.93418   -0.98956   -1.04280   -1.09366   -1.14186   -1.18711   -1.22909   -1.26748   -1.30200   -1.33245   -1.35870   -1.38065   -1.39823   -1.41139   -1.42017   -1.42471   -1.42530   -1.42232   -1.41622   
1.02232   0.97575   0.92979   0.88448   0.83960   0.79400   0.74637   0.69569   0.64144   0.58364   0.52285   0.45962   0.39435   0.32739   0.25899   0.18940   0.11883   0.04748   -0.02446   -0.09683   -0.16944   -0.24214   -0.31477   -0.38717   -0.45919   -0.53068   -0.60148   -0.67145   -0.74043   -0.80824   -0.87473   -0.93969   -1.00292   -1.06418   -1.12323   -1.17981   -1.23362   -1.28435   -1.33165   -1.37517   -1.41458   -1.44963   -1.48014   -1.50600   -1.52713   -1.54344   -1.55493   -1.56171   -1.56403   -1.56228   -1.55693   -1.54848   
1.04785   0.99707   0.94699   0.89770   0.84907   0.80008   0.74933   0.69551   0.63777   0.57593   0.51058   0.44241   0.37193   0.29954   0.22556   0.15026   0.07391   -0.00329   -0.08112   -0.15938   -0.23788   -0.31644   -0.39489   -0.47306   -0.55077   -0.62787   -0.70418   -0.77952   -0.85372   -0.92660   -0.99793   -1.06751   -1.13509   -1.20041   -1.26317   -1.32309   -1.37982   -1.43301   -1.48227   -1.52721   -1.56751   -1.60296   -1.63341   -1.65876   -1.67890   -1.69380   -1.70349   -1.70819   -1.70826   -1.70418   -1.69647   -1.68574   
1.07295   1.01784   0.96353   0.91012   0.85754   0.80497   0.75080   0.69374   0.63245   0.56649   0.49646   0.42321   0.34734   0.26934   0.18957   0.10837   0.02601   -0.05725   -0.14118   -0.22556   -0.31018   -0.39485   -0.47936   -0.56354   -0.64719   -0.73012   -0.81214   -0.89306   -0.97266   -1.05075   -1.12707   -1.20137   -1.27338   -1.34280   -1.40931   -1.47257   -1.53219   -1.58778   -1.63889   -1.68514   -1.72624   -1.76200   -1.79228   -1.81698   -1.83601   -1.84937   -1.85719   -1.85976   -1.85756   -1.85114   -1.84112   -1.82817   
1.09769   1.03812   0.97947   0.92181   0.86513   0.80880   0.75098   0.69049   0.62557   0.55542   0.48060   0.40210   0.32067   0.23686   0.15110   0.06377   -0.02482   -0.11438   -0.20466   -0.29541   -0.38641   -0.47743   -0.56825   -0.65867   -0.74848   -0.83746   -0.92539   -1.01205   -1.09722   -1.18065   -1.26208   -1.34120   -1.41773   -1.49131   -1.56160   -1.62820   -1.69069   -1.74861   -1.80149   -1.84897   -1.89078   -1.92676   -1.95677   -1.98072   -1.99853   -2.01026   -2.01612   -2.01654   -2.01205   -2.00332   -1.99105   -1.97593   
1.12209   1.05798   0.99486   0.93285   0.87194   0.81166   0.75003   0.68587   0.61722   0.54281   0.46306   0.37916   0.29197   0.20215   0.11018   0.01649   -0.07858   -0.17470   -0.27159   -0.36897   -0.46660   -0.56422   -0.66159   -0.75848   -0.85465   -0.94987   -1.04389   -1.13647   -1.22736   -1.31627   -1.40292   -1.48697   -1.56809   -1.64590   -1.71999   -1.78995   -1.85527   -1.91546   -1.97005   -2.01868   -2.06115   -2.09728   -2.12694   -2.15004   -2.16653   -2.17655   -2.18041   -2.17864   -2.17188   -2.16087   -2.14638   -2.12912   
1.14609   1.07745   1.00976   0.94328   0.87802   0.81365   0.74805   0.68000   0.60749   0.52872   0.44392   0.35443   0.26128   0.16522   0.06680   -0.03351   -0.13531   -0.23825   -0.34201   -0.44628   -0.55078   -0.65523   -0.75937   -0.86294   -0.96567   -1.06732   -1.16761   -1.26627   -1.36303   -1.45757   -1.54956   -1.63864   -1.72444   -1.80653   -1.88447   -1.95777   -2.02591   -2.08832   -2.14457   -2.19433   -2.23740   -2.27362   -2.30285   -2.32500   -2.34009   -2.34833   -2.35015   -2.34617   -2.33714   -2.32388   -2.30721   -2.28780   
1.16947   1.09656   1.02422   0.95316   0.88345   0.81483   0.74511   0.67297   0.59645   0.51321   0.42319   0.32792   0.22859   0.12604   0.02092   -0.08627   -0.19507   -0.30508   -0.41595   -0.52734   -0.63893   -0.75044   -0.86156   -0.97201   -1.08150   -1.18976   -1.29650   -1.40142   -1.50420   -1.60451   -1.70197   -1.79619   -1.88674   -1.97318   -2.05500   -2.13167   -2.20259   -2.26721   -2.32509   -2.37595   -2.41959   -2.45582   -2.48454   -2.50566   -2.51927   -2.52568   -2.52542   -2.51922   -2.50793   -2.49243   -2.47358   -2.45199   
1.19195   1.11524   1.03828   0.96254   0.88825   0.81527   0.74128   0.66486   0.58415   0.49628   0.40089   0.29962   0.19387   0.08459   -0.02750   -0.14181   -0.25785   -0.37517   -0.49338   -0.61212   -0.73104   -0.84981   -0.96812   -1.08565   -1.20211   -1.31718   -1.43055   -1.54190   -1.65086   -1.75707   -1.86013   -1.95959   -2.05500   -2.14585   -2.23160   -2.31164   -2.38535   -2.45216   -2.51166   -2.56360   -2.60774   -2.64394   -2.67206   -2.69207   -2.70413   -2.70865   -2.70628   -2.69785   -2.68430   -2.66659   -2.64553   -2.62169   


# Torque coefficient

0.02988   0.03149   0.03308   0.03463   0.03614   0.03760   0.03901   0.04036   0.04166   0.04288   0.04404   0.04512   0.04612   0.04703   0.04786   0.04859   0.04923   0.04977   0.05021   0.05054   0.05078   0.05091   0.05095   0.05088   0.05072   0.05045   0.05009   0.04964   0.04908   0.04843   0.04769   0.04685   0.04592   0.04490   0.04379   0.04258   0.04128   0.03990   0.03843   0.03688   0.03525   0.03354   0.03175   0.02990   0.02798   0.02599   0.02395   0.02185   0.01971   0.01752   0.01529   0.01303   
0.04047   0.04218   0.04383   0.04540   0.04688   0.04828   0.04958   0.05078   0.05187   0.05284   0.05370   0.05444   0.05505   0.05553   0.05590   0.05613   0.05624   0.05623   0.05610   0.05584   0.05547   0.05497   0.05435   0.05361   0.05275   0.05177   0.05067   0.04946   0.04812   0.04668   0.04513   0.04347   0.04172   0.03987   0.03793   0.03591   0.03380   0.03163   0.02938   0.02707   0.02469   0.02227   0.01978   0.01726   0.01469   0.01209   0.00946   0.00681   0.00414   0.00147   -0.00119   -0.00385   
0.05036   0.05203   0.05359   0.05502   0.05631   0.05746   0.05847   0.05932   0.06003   0.06058   0.06098   0.06123   0.06133   0.06128   0.06108   0.06073   0.06023   0.05958   0.05877   0.05782   0.05671   0.05546   0.05407   0.05254   0.05088   0.04910   0.04720   0.04519   0.04308   0.04087   0.03857   0.03620   0.03374   0.03121   0.02862   0.02596   0.02324   0.02047   0.01764   0.01477   0.01186   0.00891   0.00593   0.00293   -0.00007   -0.00308   -0.00607   -0.00905   -0.01200   -0.01493   -0.01782   -0.02069   
0.05911   0.06059   0.06189   0.06301   0.06395   0.06471   0.06529   0.06569   0.06590   0.06594   0.06578   0.06545   0.06493   0.06422   0.06333   0.06227   0.06102   0.05961   0.05804   0.05632   0.05445   0.05246   0.05033   0.04810   0.04575   0.04331   0.04078   0.03816   0.03546   0.03269   0.02985   0.02694   0.02397   0.02093   0.01783   0.01468   0.01148   0.00823   0.00494   0.00163   -0.00171   -0.00505   -0.00839   -0.01172   -0.01501   -0.01828   -0.02150   -0.02469   -0.02783   -0.03095   -0.03405   -0.03714   
0.06623   0.06736   0.06827   0.06896   0.06944   0.06970   0.06974   0.06956   0.06916   0.06854   0.06772   0.06669   0.06546   0.06405   0.06245   0.06069   0.05878   0.05672   0.05452   0.05219   0.04975   0.04720   0.04455   0.04181   0.03897   0.03605   0.03306   0.02999   0.02684   0.02363   0.02034   0.01698   0.01356   0.01007   0.00653   0.00293   -0.00070   -0.00437   -0.00806   -0.01174   -0.01541   -0.01905   -0.02266   -0.02622   -0.02973   -0.03319   -0.03662   -0.04001   -0.04340   -0.04681   -0.05025   -0.05374   